# generated using pymatgen
data_Li2V3TeO8
_symmetry_space_group_name_H-M   'P 1'
_cell_length_a   8.61660400
_cell_length_b   8.67819320
_cell_length_c   8.84848197
_cell_angle_alpha   89.90587166
_cell_angle_beta   89.71003238
_cell_angle_gamma   89.77119110
_symmetry_Int_Tables_number   1
_chemical_formula_structural   Li2V3TeO8
_chemical_formula_sum   'Li8 V12 Te4 O32'
_cell_volume   661.64437114
_cell_formula_units_Z   4
loop_
 _symmetry_equiv_pos_site_id
 _symmetry_equiv_pos_as_xyz
  1  'x, y, z'
loop_
 _atom_site_type_symbol
 _atom_site_label
 _atom_site_symmetry_multiplicity
 _atom_site_fract_x
 _atom_site_fract_y
 _atom_site_fract_z
 _atom_site_occupancy
  Li  Li0  1  0.11881400  0.11761100  0.37739300  1
  Li  Li1  1  0.25430600  0.25227500  0.75360500  1
  Li  Li2  1  0.75089200  0.25323100  0.25407500  1
  Li  Li3  1  0.88106400  0.38135300  0.87876100  1
  Li  Li4  1  0.38160500  0.61844000  0.62237000  1
  Li  Li5  1  0.24857200  0.75167400  0.24587600  1
  Li  Li6  1  0.75290400  0.75091500  0.74880900  1
  Li  Li7  1  0.61532200  0.87536500  0.12098100  1
  V  V8  1  0.37016000  0.11378800  0.12062700  1
  V  V9  1  0.61905000  0.12263100  0.89197000  1
  V  V10  1  0.88969300  0.11711300  0.62402400  1
  V  V11  1  0.11096600  0.38355100  0.12200000  1
  V  V12  1  0.37827900  0.37226800  0.38988200  1
  V  V13  1  0.62858000  0.38588600  0.62475500  1
  V  V14  1  0.12535900  0.61271400  0.87515700  1
  V  V15  1  0.87867400  0.62902000  0.10982400  1
  V  V16  1  0.61109100  0.61529600  0.37782900  1
  V  V17  1  0.38757900  0.87864100  0.87355700  1
  V  V18  1  0.11803800  0.86750600  0.61135600  1
  V  V19  1  0.87285800  0.88621100  0.37671800  1
  Te  Te20  1  0.50177700  0.00243500  0.49875800  1
  Te  Te21  1  0.49778000  0.49804000  0.99791300  1
  Te  Te22  1  0.99589300  0.50099600  0.50173000  1
  Te  Te23  1  0.00306800  0.99671000  0.00187800  1
  O  O24  1  0.85585500  0.10983300  0.41366900  1
  O  O25  1  0.09888200  0.10167600  0.64164700  1
  O  O26  1  0.39381800  0.12036500  0.88107200  1
  O  O27  1  0.59756900  0.14462100  0.10016100  1
  O  O28  1  0.86387800  0.13603000  0.90013800  1
  O  O29  1  0.67735800  0.16457900  0.68178200  1
  O  O30  1  0.36251400  0.11137000  0.36448000  1
  O  O31  1  0.10651300  0.13710800  0.13919800  1
  O  O32  1  0.89393800  0.36066400  0.64074400  1
  O  O33  1  0.63987300  0.39099600  0.86547900  1
  O  O34  1  0.31947100  0.33438000  0.17451000  1
  O  O35  1  0.13242100  0.36192700  0.39841500  1
  O  O36  1  0.40743100  0.36015100  0.60752100  1
  O  O37  1  0.62135300  0.39144300  0.38440700  1
  O  O38  1  0.89922400  0.39888500  0.14189700  1
  O  O39  1  0.14082400  0.38869100  0.91124200  1
  O  O40  1  0.64029700  0.60913500  0.58896200  1
  O  O41  1  0.39858500  0.59969700  0.35987700  1
  O  O42  1  0.11842000  0.60885100  0.11584800  1
  O  O43  1  0.90345900  0.63578500  0.89059800  1
  O  O44  1  0.63311100  0.63844800  0.10064800  1
  O  O45  1  0.81884600  0.66582900  0.32598200  1
  O  O46  1  0.13792500  0.60825600  0.63270300  1
  O  O47  1  0.39479100  0.63359800  0.85726000  1
  O  O48  1  0.60347000  0.86306000  0.35996000  1
  O  O49  1  0.86104900  0.88921800  0.13533600  1
  O  O50  1  0.17006900  0.83159800  0.82490800  1
  O  O51  1  0.36589700  0.86240500  0.60341400  1
  O  O52  1  0.09394400  0.86288700  0.38932200  1
  O  O53  1  0.88106500  0.89102600  0.61671000  1
  O  O54  1  0.61398600  0.91047300  0.86158100  1
  O  O55  1  0.36176100  0.89334300  0.09076500  1
