# generated using pymatgen
data_Li2Ti2V3O10
_symmetry_space_group_name_H-M   'P 1'
_cell_length_a   5.14849813
_cell_length_b   7.73748258
_cell_length_c   10.46219472
_cell_angle_alpha   104.39594751
_cell_angle_beta   103.46170253
_cell_angle_gamma   78.20151557
_symmetry_Int_Tables_number   1
_chemical_formula_structural   Li2Ti2V3O10
_chemical_formula_sum   'Li4 Ti4 V6 O20'
_cell_volume   387.81575540
_cell_formula_units_Z   2
loop_
 _symmetry_equiv_pos_site_id
 _symmetry_equiv_pos_as_xyz
  1  'x, y, z'
loop_
 _atom_site_type_symbol
 _atom_site_label
 _atom_site_symmetry_multiplicity
 _atom_site_fract_x
 _atom_site_fract_y
 _atom_site_fract_z
 _atom_site_occupancy
  Li  Li0  1  0.55670100  0.39904900  0.11091400  1
  Li  Li1  1  0.54649600  0.39251000  0.60487700  1
  Li  Li2  1  0.45338100  0.60764800  0.39517700  1
  Li  Li3  1  0.44323600  0.60101000  0.88912600  1
  Ti  Ti4  1  0.02164300  0.68288000  0.06901500  1
  Ti  Ti5  1  0.00217700  0.68767300  0.55872500  1
  Ti  Ti6  1  0.99771400  0.31231700  0.44126300  1
  Ti  Ti7  1  0.97836600  0.31707600  0.93099800  1
  V  V8  1  0.49998600  0.00001800  0.49999200  1
  V  V9  1  0.95789000  0.88803100  0.84206300  1
  V  V10  1  0.04218400  0.11196500  0.15792400  1
  V  V11  1  0.50003200  0.99999100  0.99997000  1
  V  V12  1  0.96249200  0.89417200  0.34558400  1
  V  V13  1  0.03753100  0.10579200  0.65443300  1
  O  O14  1  0.21520300  0.85789700  0.01917600  1
  O  O15  1  0.21441500  0.86602500  0.53054400  1
  O  O16  1  0.78570500  0.13393900  0.46947100  1
  O  O17  1  0.78483600  0.14209300  0.98082500  1
  O  O18  1  0.76848600  0.51811500  0.02639200  1
  O  O19  1  0.77458200  0.50587500  0.52881100  1
  O  O20  1  0.22534800  0.49405700  0.47114700  1
  O  O21  1  0.23145900  0.48189500  0.97359400  1
  O  O22  1  0.79891900  0.93290400  0.15245500  1
  O  O23  1  0.78429500  0.93726000  0.66242300  1
  O  O24  1  0.21576800  0.06275200  0.33758800  1
  O  O25  1  0.20113000  0.06706800  0.84754500  1
  O  O26  1  0.28433100  0.20974300  0.10991100  1
  O  O27  1  0.27954600  0.22080000  0.59262700  1
  O  O28  1  0.72052400  0.77923400  0.40732500  1
  O  O29  1  0.71562700  0.79025800  0.89011100  1
  O  O30  1  0.17367500  0.68008800  0.24067000  1
  O  O31  1  0.15659100  0.69145800  0.74321800  1
  O  O32  1  0.84343300  0.30849500  0.25681100  1
  O  O33  1  0.82629500  0.31991200  0.75929400  1
