# generated using pymatgen
data_Li4Mn5(Fe2O9)2
_symmetry_space_group_name_H-M   'P 1'
_cell_length_a   2.90992600
_cell_length_b   9.11755000
_cell_length_c   24.90984087
_cell_angle_alpha   89.81857954
_cell_angle_beta   90.00000000
_cell_angle_gamma   90.00000000
_symmetry_Int_Tables_number   1
_chemical_formula_structural   Li4Mn5(Fe2O9)2
_chemical_formula_sum   'Li8 Mn10 Fe8 O36'
_cell_volume   660.88953449
_cell_formula_units_Z   2
loop_
 _symmetry_equiv_pos_site_id
 _symmetry_equiv_pos_as_xyz
  1  'x, y, z'
loop_
 _atom_site_type_symbol
 _atom_site_label
 _atom_site_symmetry_multiplicity
 _atom_site_fract_x
 _atom_site_fract_y
 _atom_site_fract_z
 _atom_site_occupancy
  Li  Li0  1  0.00000000  0.82232400  0.00649900  1
  Li  Li1  1  0.00000000  0.79475600  0.79600900  1
  Li  Li2  1  0.00000000  0.70905300  0.29525800  1
  Li  Li3  1  0.00000000  0.67941200  0.50628900  1
  Li  Li4  1  0.00000000  0.32058800  0.49371100  1
  Li  Li5  1  0.00000000  0.29094700  0.70474200  1
  Li  Li6  1  0.00000000  0.20524400  0.20399100  1
  Li  Li7  1  0.00000000  0.17767600  0.99350100  1
  Mn  Mn8  1  0.00000000  0.00000000  0.50000000  1
  Mn  Mn9  1  0.00000000  0.99482500  0.89472000  1
  Mn  Mn10  1  0.50000000  0.85127700  0.19035700  1
  Mn  Mn11  1  0.50000000  0.65149000  0.69062300  1
  Mn  Mn12  1  0.00000000  0.50648900  0.39500100  1
  Mn  Mn13  1  0.00000000  0.50000000  0.00000000  1
  Mn  Mn14  1  0.00000000  0.49351100  0.60499900  1
  Mn  Mn15  1  0.50000000  0.34851000  0.30937700  1
  Mn  Mn16  1  0.50000000  0.14872300  0.80964300  1
  Mn  Mn17  1  0.00000000  0.00517500  0.10528000  1
  Fe  Fe18  1  0.00000000  0.98140800  0.69141300  1
  Fe  Fe19  1  0.50000000  0.85317300  0.41129500  1
  Fe  Fe20  1  0.50000000  0.64966100  0.91120100  1
  Fe  Fe21  1  0.00000000  0.51418600  0.19180100  1
  Fe  Fe22  1  0.00000000  0.48581400  0.80819900  1
  Fe  Fe23  1  0.50000000  0.35033900  0.08879900  1
  Fe  Fe24  1  0.50000000  0.14682700  0.58870500  1
  Fe  Fe25  1  0.00000000  0.01859200  0.30858700  1
  O  O26  1  0.00000000  0.00279300  0.57678900  1
  O  O27  1  0.00000000  0.99720700  0.42321100  1
  O  O28  1  0.50000000  0.95878200  0.05803400  1
  O  O29  1  0.50000000  0.95192100  0.84118900  1
  O  O30  1  0.50000000  0.88246000  0.33128600  1
  O  O31  1  0.00000000  0.89822400  0.23842200  1
  O  O32  1  0.50000000  0.85854500  0.49609200  1
  O  O33  1  0.50000000  0.84852800  0.71693900  1
  O  O34  1  0.00000000  0.81555400  0.14119800  1
  O  O35  1  0.00000000  0.79705700  0.91860500  1
  O  O36  1  0.00000000  0.70264700  0.41815200  1
  O  O37  1  0.00000000  0.68853100  0.64104000  1
  O  O38  1  0.50000000  0.65226300  0.21449800  1
  O  O39  1  0.50000000  0.64508000  0.99773600  1
  O  O40  1  0.00000000  0.60737400  0.73857200  1
  O  O41  1  0.50000000  0.61395000  0.83322900  1
  O  O42  1  0.50000000  0.54804200  0.34085800  1
  O  O43  1  0.50000000  0.54556400  0.55781100  1
  O  O44  1  0.00000000  0.50604900  0.92362200  1
  O  O45  1  0.00000000  0.49395100  0.07637800  1
  O  O46  1  0.50000000  0.45443600  0.44218900  1
  O  O47  1  0.50000000  0.45195800  0.65914200  1
  O  O48  1  0.50000000  0.38605000  0.16677100  1
  O  O49  1  0.00000000  0.39262600  0.26142800  1
  O  O50  1  0.50000000  0.35492000  0.00226400  1
  O  O51  1  0.50000000  0.34773700  0.78550200  1
  O  O52  1  0.00000000  0.31146900  0.35896000  1
  O  O53  1  0.00000000  0.29735300  0.58184800  1
  O  O54  1  0.00000000  0.20294300  0.08139500  1
  O  O55  1  0.00000000  0.18444600  0.85880200  1
  O  O56  1  0.50000000  0.15147200  0.28306100  1
  O  O57  1  0.50000000  0.14145500  0.50390800  1
  O  O58  1  0.00000000  0.10177600  0.76157800  1
  O  O59  1  0.50000000  0.11754000  0.66871400  1
  O  O60  1  0.50000000  0.04807900  0.15881100  1
  O  O61  1  0.50000000  0.04121800  0.94196600  1
