# generated using pymatgen
data_Li2CrSiO4
_symmetry_space_group_name_H-M   'P 1'
_cell_length_a   5.01318500
_cell_length_b   6.57724700
_cell_length_c   10.54488200
_cell_angle_alpha   90.00000000
_cell_angle_beta   90.00000000
_cell_angle_gamma   90.00000000
_symmetry_Int_Tables_number   1
_chemical_formula_structural   Li2CrSiO4
_chemical_formula_sum   'Li8 Cr4 Si4 O16'
_cell_volume   347.69593023
_cell_formula_units_Z   4
loop_
 _symmetry_equiv_pos_site_id
 _symmetry_equiv_pos_as_xyz
  1  'x, y, z'
loop_
 _atom_site_type_symbol
 _atom_site_label
 _atom_site_symmetry_multiplicity
 _atom_site_fract_x
 _atom_site_fract_y
 _atom_site_fract_z
 _atom_site_occupancy
  Li  Li0  1  0.18208500  0.50196800  0.58962900  1
  Li  Li1  1  0.31791500  0.50196800  0.08962900  1
  Li  Li2  1  0.31791500  0.99803200  0.08962900  1
  Li  Li3  1  0.18208500  0.99803200  0.58962900  1
  Li  Li4  1  0.68208500  0.00196800  0.91037100  1
  Li  Li5  1  0.81791500  0.00196800  0.41037100  1
  Li  Li6  1  0.81791500  0.49803200  0.41037100  1
  Li  Li7  1  0.68208500  0.49803200  0.91037100  1
  Cr  Cr8  1  0.19273400  0.75000000  0.85138400  1
  Cr  Cr9  1  0.30726600  0.75000000  0.35138400  1
  Cr  Cr10  1  0.69273400  0.25000000  0.64861600  1
  Cr  Cr11  1  0.80726600  0.25000000  0.14861600  1
  Si  Si12  1  0.66916800  0.75000000  0.66762700  1
  Si  Si13  1  0.83083200  0.75000000  0.16762700  1
  Si  Si14  1  0.33083200  0.25000000  0.33237300  1
  Si  Si15  1  0.16916800  0.25000000  0.83237300  1
  O  O16  1  0.78103700  0.54250200  0.59682200  1
  O  O17  1  0.71896300  0.54250200  0.09682200  1
  O  O18  1  0.34102300  0.75000000  0.65986200  1
  O  O19  1  0.73791900  0.75000000  0.31869800  1
  O  O20  1  0.76208100  0.75000000  0.81869800  1
  O  O21  1  0.15897700  0.75000000  0.15986200  1
  O  O22  1  0.71896300  0.95749800  0.09682200  1
  O  O23  1  0.78103700  0.95749800  0.59682200  1
  O  O24  1  0.21896300  0.04250200  0.40317800  1
  O  O25  1  0.28103700  0.04250200  0.90317800  1
  O  O26  1  0.65897700  0.25000000  0.34013800  1
  O  O27  1  0.84102300  0.25000000  0.84013800  1
  O  O28  1  0.26208100  0.25000000  0.68130200  1
  O  O29  1  0.23791900  0.25000000  0.18130200  1
  O  O30  1  0.21896300  0.45749800  0.40317800  1
  O  O31  1  0.28103700  0.45749800  0.90317800  1
