# generated using pymatgen
data_LiMn2(PO5)2
_symmetry_space_group_name_H-M   'P 1'
_cell_length_a   6.69799800
_cell_length_b   6.97364056
_cell_length_c   7.97266262
_cell_angle_alpha   89.85291493
_cell_angle_beta   91.02688795
_cell_angle_gamma   116.69209856
_symmetry_Int_Tables_number   1
_chemical_formula_structural   LiMn2(PO5)2
_chemical_formula_sum   'Li2 Mn4 P4 O20'
_cell_volume   332.65356204
_cell_formula_units_Z   2
loop_
 _symmetry_equiv_pos_site_id
 _symmetry_equiv_pos_as_xyz
  1  'x, y, z'
loop_
 _atom_site_type_symbol
 _atom_site_label
 _atom_site_symmetry_multiplicity
 _atom_site_fract_x
 _atom_site_fract_y
 _atom_site_fract_z
 _atom_site_occupancy
  Li  Li0  1  0.22063700  0.27242600  0.07052200  1
  Li  Li1  1  0.70321700  0.20010100  0.56921800  1
  Mn  Mn2  1  0.24556900  0.99581400  0.75260600  1
  Mn  Mn3  1  0.24892300  0.49823900  0.74679000  1
  Mn  Mn4  1  0.75534400  0.50354200  0.24933100  1
  Mn  Mn5  1  0.75145100  0.00046900  0.24906100  1
  P  P6  1  0.24054000  0.75415200  0.08425400  1
  P  P7  1  0.26187500  0.24414000  0.41885100  1
  P  P8  1  0.74048300  0.75465300  0.58390900  1
  P  P9  1  0.75990400  0.24627900  0.91811600  1
  O  O10  1  0.14667000  0.87732000  0.97075000  1
  O  O11  1  0.07305400  0.63865300  0.22411400  1
  O  O12  1  0.23011300  0.74171300  0.67007500  1
  O  O13  1  0.28393400  0.58591500  0.98428400  1
  O  O14  1  0.19145100  0.39068200  0.52022800  1
  O  O15  1  0.06074100  0.08458500  0.31097100  1
  O  O16  1  0.45292300  0.92278400  0.17368200  1
  O  O17  1  0.26527900  0.25508300  0.82991100  1
  O  O18  1  0.65418800  0.88750600  0.47224700  1
  O  O19  1  0.42998300  0.36952100  0.27911800  1
  O  O20  1  0.56609800  0.63228600  0.71771400  1
  O  O21  1  0.36314400  0.12882600  0.53275300  1
  O  O22  1  0.73366800  0.74475300  0.16955300  1
  O  O23  1  0.55518600  0.08017200  0.81674400  1
  O  O24  1  0.94731900  0.92026800  0.68112100  1
  O  O25  1  0.79457600  0.59695800  0.48148500  1
  O  O26  1  0.69957800  0.39972400  0.01927800  1
  O  O27  1  0.76784900  0.25731400  0.32910400  1
  O  O28  1  0.92295900  0.36127700  0.77306200  1
  O  O29  1  0.86724500  0.13544700  0.03204900  1
