# generated using pymatgen
data_Li5V3P8O29
_symmetry_space_group_name_H-M   'P 1'
_cell_length_a   9.79909800
_cell_length_b   9.80674855
_cell_length_c   14.12671670
_cell_angle_alpha   90.23925789
_cell_angle_beta   90.07009719
_cell_angle_gamma   119.70902964
_symmetry_Int_Tables_number   1
_chemical_formula_structural   Li5V3P8O29
_chemical_formula_sum   'Li10 V6 P16 O58'
_cell_volume   1179.07655515
_cell_formula_units_Z   2
loop_
 _symmetry_equiv_pos_site_id
 _symmetry_equiv_pos_as_xyz
  1  'x, y, z'
loop_
 _atom_site_type_symbol
 _atom_site_label
 _atom_site_symmetry_multiplicity
 _atom_site_fract_x
 _atom_site_fract_y
 _atom_site_fract_z
 _atom_site_occupancy
  Li  Li0  1  0.69000000  0.91366300  0.93724400  1
  Li  Li1  1  0.66505800  0.76775200  0.44260500  1
  Li  Li2  1  0.23067700  0.90201300  0.44271000  1
  Li  Li3  1  0.08885100  0.77158400  0.93786000  1
  Li  Li4  1  0.23037800  0.32439900  0.94030200  1
  Li  Li5  1  0.09954700  0.33333400  0.44124300  1
  Li  Li6  1  0.67342400  0.33729900  0.39248400  1
  Li  Li7  1  0.67224000  0.34119600  0.89040400  1
  Li  Li8  1  0.30682000  0.08167300  0.06020000  1
  Li  Li9  1  0.99367800  0.99205100  0.50947000  1
  V  V10  1  0.00002200  0.56641700  0.74448400  1
  V  V11  1  0.00213100  0.43156300  0.24774900  1
  V  V12  1  0.56850700  0.57285300  0.24773000  1
  V  V13  1  0.43727800  0.43480900  0.74708400  1
  V  V14  1  0.57128700  0.00103200  0.74766100  1
  V  V15  1  0.42969700  0.99628500  0.25144900  1
  P  P16  1  0.68194200  0.91552400  0.15663600  1
  P  P17  1  0.68712800  0.76998700  0.65631000  1
  P  P18  1  0.22683800  0.91491500  0.65893200  1
  P  P19  1  0.33429400  0.66742100  0.86974500  1
  P  P20  1  0.33164300  0.66386000  0.37232900  1
  P  P21  1  0.08405100  0.76402100  0.15578000  1
  P  P22  1  0.91229400  0.68947600  0.33866100  1
  P  P23  1  0.23248800  0.31785500  0.15743800  1
  P  P24  1  0.77399800  0.68253700  0.83880200  1
  P  P25  1  0.08398200  0.30832000  0.65593700  1
  P  P26  1  0.91279000  0.23013900  0.83932500  1
  P  P27  1  0.66810000  0.33374500  0.62998200  1
  P  P28  1  0.66230000  0.32992900  0.13118500  1
  P  P29  1  0.77783600  0.08887600  0.33908100  1
  P  P30  1  0.31269400  0.22606200  0.34067700  1
  P  P31  1  0.32141600  0.09130800  0.84123200  1
  O  O32  1  0.78730500  0.99325800  0.41783600  1
  O  O33  1  0.66060300  0.91234400  0.67326300  1
  O  O34  1  0.76755300  0.77354300  0.92052100  1
  O  O35  1  0.66065400  0.74736800  0.17029700  1
  O  O36  1  0.52178300  0.90406400  0.18204800  1
  O  O37  1  0.48068500  0.81971000  0.83331300  1
  O  O38  1  0.38118200  0.91486000  0.67036300  1
  O  O39  1  0.24559700  0.99693800  0.92869000  1
  O  O40  1  0.24774100  0.91505900  0.16501000  1
  O  O41  1  0.48581500  0.67042600  0.32813800  1
  O  O42  1  0.52918800  0.61882800  0.66798400  1
  O  O43  1  0.32365400  0.80962300  0.33429900  1
  O  O44  1  0.32137300  0.66145600  0.97475100  1
  O  O45  1  0.34319600  0.66410100  0.47755100  1
  O  O46  1  0.18158800  0.65893200  0.82387100  1
  O  O47  1  0.38201900  0.47882400  0.18126100  1
  O  O48  1  0.34461600  0.52272900  0.82897000  1
  O  O49  1  0.08532700  0.74390000  0.67093900  1
  O  O50  1  0.97973100  0.77843900  0.23893100  1
  O  O51  1  0.00633400  0.79726300  0.41739200  1
  O  O52  1  0.01139600  0.75101800  0.06218700  1
  O  O53  1  0.09920000  0.61815500  0.18253700  1
  O  O54  1  0.18827000  0.51059700  0.33328500  1
  O  O55  1  0.92135100  0.65969600  0.84042800  1
  O  O56  1  0.08074000  0.46577600  0.67322200  1
  O  O57  1  0.25053100  0.33930600  0.66843000  1
  O  O58  1  0.80017100  0.77994700  0.74169200  1
  O  O59  1  0.76987000  0.78869700  0.56449700  1
  O  O60  1  0.20858600  0.21574600  0.42015500  1
  O  O61  1  0.73935800  0.65976500  0.34047200  1
  O  O62  1  0.90105000  0.52706700  0.33309600  1
  O  O63  1  0.08673800  0.33578000  0.16257700  1
  O  O64  1  0.81599500  0.48542300  0.67412600  1
  O  O65  1  0.89215000  0.37715300  0.82416100  1
  O  O66  1  0.01368700  0.24395900  0.92086900  1
  O  O67  1  0.01161200  0.23164300  0.56373200  1
  O  O68  1  0.98277000  0.20029500  0.74252800  1
  O  O69  1  0.91982900  0.25980700  0.33969500  1
  O  O70  1  0.65573000  0.47616700  0.17839900  1
  O  O71  1  0.62956100  0.51579100  0.82703900  1
  O  O72  1  0.80918100  0.33343100  0.17384100  1
  O  O73  1  0.66024600  0.33765700  0.02566700  1
  O  O74  1  0.67142100  0.34199300  0.52468900  1
  O  O75  1  0.67235600  0.19125500  0.67136100  1
  O  O76  1  0.47488900  0.37802600  0.33253900  1
  O  O77  1  0.52110600  0.33582400  0.67291000  1
  O  O78  1  0.74509800  0.08561400  0.84347300  1
  O  O79  1  0.79963500  0.01784100  0.23966500  1
  O  O80  1  0.74200600  0.98396700  0.06308200  1
  O  O81  1  0.62744500  0.10283400  0.33188200  1
  O  O82  1  0.51015300  0.18091500  0.16726700  1
  O  O83  1  0.48676200  0.11132900  0.82391300  1
  O  O84  1  0.33750400  0.25522600  0.84402200  1
  O  O85  1  0.25191700  0.25090900  0.06628800  1
  O  O86  1  0.21992300  0.20256600  0.24157300  1
  O  O87  1  0.34356000  0.08397100  0.34178300  1
  O  O88  1  0.20478400  0.98088100  0.56879600  1
  O  O89  1  0.21098900  0.00602500  0.75016400  1
