# generated using pymatgen
data_Li32Mn11Cr5O48
_symmetry_space_group_name_H-M   'P 1'
_cell_length_a   5.00668700
_cell_length_b   5.00652159
_cell_length_c   38.44843381
_cell_angle_alpha   91.02389862
_cell_angle_beta   91.02927403
_cell_angle_gamma   119.67221090
_symmetry_Int_Tables_number   1
_chemical_formula_structural   Li32Mn11Cr5O48
_chemical_formula_sum   'Li32 Mn11 Cr5 O48'
_cell_volume   836.84417734
_cell_formula_units_Z   1
loop_
 _symmetry_equiv_pos_site_id
 _symmetry_equiv_pos_as_xyz
  1  'x, y, z'
loop_
 _atom_site_type_symbol
 _atom_site_label
 _atom_site_symmetry_multiplicity
 _atom_site_fract_x
 _atom_site_fract_y
 _atom_site_fract_z
 _atom_site_occupancy
  Li  Li0  1  0.91423200  0.09172700  0.75001800  1
  Li  Li1  1  0.99880100  0.50006000  0.00011600  1
  Li  Li2  1  0.93963700  0.43589300  0.81245500  1
  Li  Li3  1  0.87409200  0.37489300  0.62508000  1
  Li  Li4  1  0.81464600  0.30984900  0.43750300  1
  Li  Li5  1  0.74922800  0.24937800  0.25014500  1
  Li  Li6  1  0.68749100  0.18756300  0.06248700  1
  Li  Li7  1  0.97035300  0.79253400  0.87495800  1
  Li  Li8  1  0.62549300  0.12515700  0.87486000  1
  Li  Li9  1  0.83890500  0.66280800  0.49994300  1
  Li  Li10  1  0.71011000  0.53398900  0.12492600  1
  Li  Li11  1  0.56252100  0.06232600  0.68748200  1
  Li  Li12  1  0.49921100  0.99868900  0.50005000  1
  Li  Li13  1  0.58370700  0.40825600  0.74981400  1
  Li  Li14  1  0.46058500  0.28464300  0.37501900  1
  Li  Li15  1  0.78769600  0.96580700  0.37486600  1
  Li  Li16  1  0.66689300  0.84278900  0.00023700  1
  Li  Li17  1  0.33528800  0.15704900  0.00003900  1
  Li  Li18  1  0.21679000  0.03985400  0.62521000  1
  Li  Li19  1  0.53363000  0.71070300  0.62497500  1
  Li  Li20  1  0.40883900  0.58699500  0.25022800  1
  Li  Li21  1  0.43744500  0.93756300  0.31253200  1
  Li  Li22  1  0.27910700  0.45692800  0.87473700  1
  Li  Li23  1  0.16160100  0.33978000  0.50008700  1
  Li  Li24  1  0.37520700  0.87500200  0.12489800  1
  Li  Li25  1  0.03882900  0.21613500  0.12478400  1
  Li  Li26  1  0.31012000  0.81494600  0.93758500  1
  Li  Li27  1  0.25130400  0.74971800  0.74992000  1
  Li  Li28  1  0.18921500  0.68705400  0.56253400  1
  Li  Li29  1  0.12584300  0.62488700  0.37496500  1
  Li  Li30  1  0.06562000  0.56077100  0.18753200  1
  Li  Li31  1  0.09118700  0.91443700  0.25011600  1
  Mn  Mn32  1  0.98009200  0.14524700  0.93756100  1
  Mn  Mn33  1  0.89513200  0.72967300  0.68749100  1
  Mn  Mn34  1  0.77035300  0.60465600  0.31252900  1
  Mn  Mn35  1  0.52047500  0.35484100  0.56249800  1
  Mn  Mn36  1  0.39502700  0.22988600  0.18752800  1
  Mn  Mn37  1  0.27013000  0.10482400  0.81247500  1
  Mn  Mn38  1  0.35485900  0.52032400  0.06246800  1
  Mn  Mn39  1  0.22937500  0.39528500  0.68747000  1
  Mn  Mn40  1  0.10463800  0.27025700  0.31252300  1
  Mn  Mn41  1  0.14476400  0.97976200  0.43743600  1
  Mn  Mn42  1  0.02043900  0.85455800  0.06249600  1
  Cr  Cr43  1  0.85799300  0.01741400  0.56249600  1
  Cr  Cr44  1  0.64224800  0.48320900  0.93753600  1
  Cr  Cr45  1  0.73289600  0.89212500  0.18750000  1
  Cr  Cr46  1  0.60779100  0.76705900  0.81250400  1
  Cr  Cr47  1  0.48254300  0.64190300  0.43746500  1
  O  O48  1  0.91140000  0.05421000  0.65949100  1
  O  O49  1  0.95179000  0.09399300  0.84078300  1
  O  O50  1  0.92893100  0.42912700  0.71597700  1
  O  O51  1  0.80408800  0.30410700  0.34099700  1
  O  O52  1  0.94431000  0.44367100  0.90901700  1
  O  O53  1  0.81947000  0.32025000  0.53399000  1
  O  O54  1  0.69377100  0.19471500  0.15901000  1
  O  O55  1  0.68106500  0.17992900  0.96604600  1
  O  O56  1  0.55505200  0.05579400  0.59104300  1
  O  O57  1  0.92721000  0.78865300  0.78459000  1
  O  O58  1  0.56913500  0.07012400  0.78402300  1
  O  O59  1  0.80159900  0.66365400  0.40950000  1
  O  O60  1  0.67930600  0.53656800  0.03449300  1
  O  O61  1  0.96912400  0.82740400  0.96594100  1
  O  O62  1  0.83631300  0.69742100  0.59045100  1
  O  O63  1  0.71096600  0.57300100  0.21548800  1
  O  O64  1  0.78648500  0.92920100  0.28451700  1
  O  O65  1  0.82733300  0.96881200  0.46585800  1
  O  O66  1  0.69603300  0.83844400  0.09047200  1
  O  O67  1  0.55422000  0.41155000  0.65956100  1
  O  O68  1  0.42949100  0.28655500  0.28460400  1
  O  O69  1  0.58640700  0.44780300  0.84045900  1
  O  O70  1  0.46113900  0.32251000  0.46535000  1
  O  O71  1  0.33875800  0.19532100  0.09038600  1
  O  O72  1  0.66403500  0.80202900  0.90953000  1
  O  O73  1  0.53181400  0.67334500  0.53415000  1
  O  O74  1  0.40614900  0.54766000  0.15911200  1
  O  O75  1  0.57056900  0.71345900  0.71549700  1
  O  O76  1  0.44583400  0.58854700  0.34052200  1
  O  O77  1  0.29774700  0.15612000  0.90916400  1
  O  O78  1  0.17817700  0.03862400  0.53458200  1
  O  O79  1  0.21323800  0.07049100  0.71543300  1
  O  O80  1  0.28125800  0.42291500  0.78414900  1
  O  O81  1  0.15563800  0.29789500  0.40910000  1
  O  O82  1  0.03655400  0.17953600  0.03455800  1
  O  O83  1  0.32330100  0.46126500  0.96548200  1
  O  O84  1  0.20179600  0.34348900  0.59079400  1
  O  O85  1  0.43009400  0.93108400  0.21605100  1
  O  O86  1  0.07720300  0.21896600  0.21588600  1
  O  O87  1  0.44415200  0.94537200  0.40895600  1
  O  O88  1  0.32108300  0.82079300  0.03400700  1
  O  O89  1  0.30478500  0.80545500  0.84098500  1
  O  O90  1  0.18000900  0.68094400  0.46594300  1
  O  O91  1  0.05408300  0.55399200  0.09094500  1
  O  O92  1  0.19554000  0.69594600  0.65901700  1
  O  O93  1  0.07073600  0.57095700  0.28403900  1
  O  O94  1  0.05197400  0.91366700  0.15954100  1
  O  O95  1  0.08844900  0.94542700  0.34043900  1
