# generated using pymatgen
data_Li2Fe(PO3)4
_symmetry_space_group_name_H-M   'P 1'
_cell_length_a   9.44819400
_cell_length_b   7.58654300
_cell_length_c   8.65143524
_cell_angle_alpha   57.46325688
_cell_angle_beta   90.00000000
_cell_angle_gamma   90.00000000
_symmetry_Int_Tables_number   1
_chemical_formula_structural   Li2Fe(PO3)4
_chemical_formula_sum   'Li4 Fe2 P8 O24'
_cell_volume   522.79632251
_cell_formula_units_Z   2
loop_
 _symmetry_equiv_pos_site_id
 _symmetry_equiv_pos_as_xyz
  1  'x, y, z'
loop_
 _atom_site_type_symbol
 _atom_site_label
 _atom_site_symmetry_multiplicity
 _atom_site_fract_x
 _atom_site_fract_y
 _atom_site_fract_z
 _atom_site_occupancy
  Li  Li0  1  0.65972200  0.77145100  0.35427400  1
  Li  Li1  1  0.84027800  0.77145100  0.85427400  1
  Li  Li2  1  0.15972200  0.22854900  0.14572600  1
  Li  Li3  1  0.34027800  0.22854900  0.64572600  1
  Fe  Fe4  1  0.00000000  0.00000000  0.00000000  1
  Fe  Fe5  1  0.50000000  0.00000000  0.50000000  1
  P  P6  1  0.59423500  0.45372300  0.73228100  1
  P  P7  1  0.09423500  0.54627700  0.76771900  1
  P  P8  1  0.21722700  0.78803700  0.38219800  1
  P  P9  1  0.71722700  0.21196300  0.11780200  1
  P  P10  1  0.28277300  0.78803700  0.88219800  1
  P  P11  1  0.78277300  0.21196300  0.61780200  1
  P  P12  1  0.90576500  0.45372300  0.23228100  1
  P  P13  1  0.40576500  0.54627700  0.26771900  1
  O  O14  1  0.72729800  0.35888800  0.68387100  1
  O  O15  1  0.11254500  0.31214300  0.88768100  1
  O  O16  1  0.45800400  0.35595300  0.73186300  1
  O  O17  1  0.63433200  0.38765600  0.93823200  1
  O  O18  1  0.13433200  0.61234400  0.56176800  1
  O  O19  1  0.11243500  0.93853900  0.24176100  1
  O  O20  1  0.95800400  0.64404700  0.76813700  1
  O  O21  1  0.61254500  0.68785700  0.61231900  1
  O  O22  1  0.83270100  0.11036800  0.07521500  1
  O  O23  1  0.22729800  0.64111200  0.81612900  1
  O  O24  1  0.33270100  0.88963200  0.42478500  1
  O  O25  1  0.61243500  0.06146100  0.25823900  1
  O  O26  1  0.38756500  0.93853900  0.74176100  1
  O  O27  1  0.66729900  0.11036800  0.57521500  1
  O  O28  1  0.77270200  0.35888800  0.18387100  1
  O  O29  1  0.16729900  0.88963200  0.92478500  1
  O  O30  1  0.38745500  0.31214300  0.38768100  1
  O  O31  1  0.04199600  0.35595300  0.23186300  1
  O  O32  1  0.88756500  0.06146100  0.75823900  1
  O  O33  1  0.86566800  0.38765600  0.43823200  1
  O  O34  1  0.36566800  0.61234400  0.06176800  1
  O  O35  1  0.54199600  0.64404700  0.26813700  1
  O  O36  1  0.88745500  0.68785700  0.11231900  1
  O  O37  1  0.27270200  0.64111200  0.31612900  1
