# generated using pymatgen
data_Li5Nb3OF18
_symmetry_space_group_name_H-M   'P 1'
_cell_length_a   10.03141242
_cell_length_b   10.03141242
_cell_length_c   10.03141242
_cell_angle_alpha   99.74098004
_cell_angle_beta   99.74098004
_cell_angle_gamma   131.42287613
_symmetry_Int_Tables_number   1
_chemical_formula_structural   Li5Nb3OF18
_chemical_formula_sum   'Li10 Nb6 O2 F36'
_cell_volume   689.93570598
_cell_formula_units_Z   2
loop_
 _symmetry_equiv_pos_site_id
 _symmetry_equiv_pos_as_xyz
  1  'x, y, z'
loop_
 _atom_site_type_symbol
 _atom_site_label
 _atom_site_symmetry_multiplicity
 _atom_site_fract_x
 _atom_site_fract_y
 _atom_site_fract_z
 _atom_site_occupancy
  Li  Li0  1  0.23131300  0.90812300  0.15660000  1
  Li  Li1  1  0.73131300  0.57471300  0.32319000  1
  Li  Li2  1  0.40812300  0.73131300  0.15660000  1
  Li  Li3  1  0.90812300  0.75152300  0.67681000  1
  Li  Li4  1  0.86961200  0.36961200  0.50000000  1
  Li  Li5  1  0.36961200  0.86961200  0.50000000  1
  Li  Li6  1  0.07471300  0.23131300  0.32319000  1
  Li  Li7  1  0.57471300  0.25152300  0.84340000  1
  Li  Li8  1  0.25152300  0.40812300  0.67681000  1
  Li  Li9  1  0.75152300  0.07471300  0.84340000  1
  Nb  Nb10  1  0.24536900  0.24536900  0.00000000  1
  Nb  Nb11  1  0.74536900  0.74536900  0.00000000  1
  Nb  Nb12  1  0.81268200  0.31268200  0.16422200  1
  Nb  Nb13  1  0.31268200  0.14846000  0.50000000  1
  Nb  Nb14  1  0.14846000  0.64846000  0.83577800  1
  Nb  Nb15  1  0.64846000  0.81268200  0.50000000  1
  O  O16  1  0.02818200  0.02818200  0.00000000  1
  O  O17  1  0.52818200  0.52818200  0.00000000  1
  F  F18  1  0.43161000  0.26005500  0.12505400  1
  F  F19  1  0.93161000  0.80655700  0.17155600  1
  F  F20  1  0.76240800  0.44244700  0.07977000  1
  F  F21  1  0.26240800  0.18263800  0.31996100  1
  F  F22  1  0.63969900  0.13969900  0.94390300  1
  F  F23  1  0.13969900  0.19579600  0.50000000  1
  F  F24  1  0.58064100  0.08064100  0.17411400  1
  F  F25  1  0.08064100  0.90652700  0.50000000  1
  F  F26  1  0.79043000  0.42884800  0.33796700  1
  F  F27  1  0.29043000  0.95246300  0.36158200  1
  F  F28  1  0.06912400  0.56912400  0.26205300  1
  F  F29  1  0.56912400  0.30707100  0.50000000  1
  F  F30  1  0.94244700  0.26240800  0.07977000  1
  F  F31  1  0.44244700  0.36267700  0.68003900  1
  F  F32  1  0.26005500  0.13500100  0.82844400  1
  F  F33  1  0.76005500  0.93161000  0.12505400  1
  F  F34  1  0.92884800  0.29043000  0.33796700  1
  F  F35  1  0.42884800  0.09088100  0.63841800  1
  F  F36  1  0.95246300  0.59088100  0.66203300  1
  F  F37  1  0.45246300  0.79043000  0.36158200  1
  F  F38  1  0.80655700  0.63500100  0.87494600  1
  F  F39  1  0.30655700  0.43161000  0.17155600  1
  F  F40  1  0.68263800  0.76240800  0.31996100  1
  F  F41  1  0.18263800  0.86267700  0.92023000  1
  F  F42  1  0.30707100  0.80707100  0.73794700  1
  F  F43  1  0.80707100  0.06912400  0.50000000  1
  F  F44  1  0.59088100  0.92884800  0.63841800  1
  F  F45  1  0.09088100  0.45246300  0.66203300  1
  F  F46  1  0.90652700  0.40652700  0.82588600  1
  F  F47  1  0.40652700  0.58064100  0.50000000  1
  F  F48  1  0.19579600  0.69579600  0.05609700  1
  F  F49  1  0.69579600  0.63969900  0.50000000  1
  F  F50  1  0.36267700  0.68263800  0.92023000  1
  F  F51  1  0.86267700  0.94244700  0.68003900  1
  F  F52  1  0.63500100  0.76005500  0.82844400  1
  F  F53  1  0.13500100  0.30655700  0.87494600  1
