# generated using pymatgen
data_Li4Cr3Ni2Sn3O16
_symmetry_space_group_name_H-M   'P 1'
_cell_length_a   6.05405248
_cell_length_b   6.05405248
_cell_length_c   9.72231471
_cell_angle_alpha   89.21715950
_cell_angle_beta   89.21715950
_cell_angle_gamma   59.97717811
_symmetry_Int_Tables_number   1
_chemical_formula_structural   Li4Cr3Ni2Sn3O16
_chemical_formula_sum   'Li4 Cr3 Ni2 Sn3 O16'
_cell_volume   308.48830822
_cell_formula_units_Z   1
loop_
 _symmetry_equiv_pos_site_id
 _symmetry_equiv_pos_as_xyz
  1  'x, y, z'
loop_
 _atom_site_type_symbol
 _atom_site_label
 _atom_site_symmetry_multiplicity
 _atom_site_fract_x
 _atom_site_fract_y
 _atom_site_fract_z
 _atom_site_occupancy
  Li  Li0  1  0.67230900  0.67230900  0.88777600  1
  Li  Li1  1  0.98886700  0.98886700  0.99479900  1
  Li  Li2  1  0.98934700  0.98934700  0.50153200  1
  Li  Li3  1  0.33658100  0.33658100  0.39503400  1
  Cr  Cr4  1  0.83295800  0.83295800  0.21266500  1
  Cr  Cr5  1  0.66452200  0.17104000  0.71356900  1
  Cr  Cr6  1  0.17104000  0.66452100  0.71356900  1
  Ni  Ni7  1  0.66802100  0.66802100  0.48961500  1
  Ni  Ni8  1  0.33268900  0.33268900  0.98563600  1
  Sn  Sn9  1  0.83317300  0.33993700  0.21581700  1
  Sn  Sn10  1  0.33993700  0.83317300  0.21581700  1
  Sn  Sn11  1  0.17147400  0.17147400  0.71511900  1
  O  O12  1  0.82880200  0.31556100  0.60284200  1
  O  O13  1  0.51740200  0.51740200  0.34295200  1
  O  O14  1  0.67373100  0.67373100  0.09715800  1
  O  O15  1  0.99284300  0.99284300  0.31865100  1
  O  O16  1  0.99509800  0.99509800  0.81284500  1
  O  O17  1  0.31556100  0.82880200  0.60284200  1
  O  O18  1  0.96503400  0.53409500  0.33462500  1
  O  O19  1  0.53409500  0.96503400  0.33462500  1
  O  O20  1  0.15681500  0.15681500  0.09279900  1
  O  O21  1  0.84012200  0.84012200  0.61726700  1
  O  O22  1  0.49615600  0.03960600  0.83477100  1
  O  O23  1  0.03960600  0.49615600  0.83477100  1
  O  O24  1  0.34100600  0.34100600  0.60250300  1
  O  O25  1  0.67939700  0.14427700  0.10722700  1
  O  O26  1  0.47998900  0.47998900  0.82382900  1
  O  O27  1  0.14427700  0.67939700  0.10722700  1
