# generated using pymatgen
data_Li2V(CO3)2
_symmetry_space_group_name_H-M   'P 1'
_cell_length_a   7.92449608
_cell_length_b   7.92449608
_cell_length_c   9.04340563
_cell_angle_alpha   73.72587081
_cell_angle_beta   73.72587081
_cell_angle_gamma   106.78239550
_symmetry_Int_Tables_number   1
_chemical_formula_structural   Li2V(CO3)2
_chemical_formula_sum   'Li8 V4 C8 O24'
_cell_volume   479.94471377
_cell_formula_units_Z   4
loop_
 _symmetry_equiv_pos_site_id
 _symmetry_equiv_pos_as_xyz
  1  'x, y, z'
loop_
 _atom_site_type_symbol
 _atom_site_label
 _atom_site_symmetry_multiplicity
 _atom_site_fract_x
 _atom_site_fract_y
 _atom_site_fract_z
 _atom_site_occupancy
  Li  Li0  1  0.13601000  0.00066800  0.06589400  1
  Li  Li1  1  0.45983600  0.97324900  0.36669300  1
  Li  Li2  1  0.40891000  0.58357300  0.51788100  1
  Li  Li3  1  0.58357300  0.40891000  0.01788100  1
  Li  Li4  1  0.47669900  0.94618400  0.85428300  1
  Li  Li5  1  0.94618400  0.47669900  0.35428300  1
  Li  Li6  1  0.00066800  0.13601000  0.56589400  1
  Li  Li7  1  0.97324900  0.45983600  0.86669300  1
  V  V8  1  0.75191800  0.00865600  0.99688500  1
  V  V9  1  0.00865600  0.75191800  0.49688500  1
  V  V10  1  0.25105600  0.50583900  0.00041100  1
  V  V11  1  0.50583900  0.25105600  0.50041100  1
  C  C12  1  0.28696500  0.18397100  0.25957100  1
  C  C13  1  0.32149800  0.72286300  0.22817700  1
  C  C14  1  0.18397100  0.28696500  0.75957100  1
  C  C15  1  0.72286300  0.32149800  0.72817700  1
  C  C16  1  0.21528400  0.81728100  0.73274300  1
  C  C17  1  0.81728100  0.21528400  0.23274300  1
  C  C18  1  0.78559800  0.69074200  0.26186300  1
  C  C19  1  0.69074200  0.78559800  0.76186300  1
  O  O20  1  0.13065900  0.06788900  0.38727800  1
  O  O21  1  0.28927900  0.23729600  0.10826900  1
  O  O22  1  0.06788900  0.13065900  0.88727800  1
  O  O23  1  0.05804900  0.72522000  0.72272700  1
  O  O24  1  0.22721700  0.56377200  0.22318100  1
  O  O25  1  0.29355000  0.73320300  0.37632400  1
  O  O26  1  0.43576300  0.87473200  0.09490700  1
  O  O27  1  0.36128200  0.94581200  0.59932900  1
  O  O28  1  0.23066200  0.77620900  0.87688500  1
  O  O29  1  0.23729600  0.28927900  0.60826900  1
  O  O30  1  0.24792700  0.44973600  0.77463300  1
  O  O31  1  0.56377200  0.22721700  0.72318100  1
  O  O32  1  0.44973600  0.24792700  0.27463300  1
  O  O33  1  0.72522000  0.05804900  0.22272700  1
  O  O34  1  0.77620900  0.23066200  0.37688500  1
  O  O35  1  0.76528800  0.74889500  0.12424800  1
  O  O36  1  0.64388500  0.55852800  0.39742600  1
  O  O37  1  0.55852800  0.64388500  0.89742600  1
  O  O38  1  0.74889500  0.76528800  0.62424800  1
  O  O39  1  0.75991200  0.95556400  0.76863600  1
  O  O40  1  0.95556400  0.75991200  0.26863600  1
  O  O41  1  0.94581200  0.36128200  0.09932900  1
  O  O42  1  0.87473200  0.43576300  0.59490700  1
  O  O43  1  0.73320300  0.29355000  0.87632400  1
