# generated using pymatgen
data_Li2V(Si2O5)3
_symmetry_space_group_name_H-M   'P 1'
_cell_length_a   11.06981388
_cell_length_b   11.06981388
_cell_length_c   10.01758900
_cell_angle_alpha   90.00000000
_cell_angle_beta   90.00000000
_cell_angle_gamma   99.56172733
_symmetry_Int_Tables_number   1
_chemical_formula_structural   Li2V(Si2O5)3
_chemical_formula_sum   'Li8 V4 Si24 O60'
_cell_volume   1210.50889265
_cell_formula_units_Z   4
loop_
 _symmetry_equiv_pos_site_id
 _symmetry_equiv_pos_as_xyz
  1  'x, y, z'
loop_
 _atom_site_type_symbol
 _atom_site_label
 _atom_site_symmetry_multiplicity
 _atom_site_fract_x
 _atom_site_fract_y
 _atom_site_fract_z
 _atom_site_occupancy
  Li  Li0  1  0.48005200  0.01994800  0.75000000  1
  Li  Li1  1  0.24144600  0.24144600  0.00000000  1
  Li  Li2  1  0.25855400  0.25855400  0.50000000  1
  Li  Li3  1  0.98005200  0.51994800  0.75000000  1
  Li  Li4  1  0.01994800  0.48005200  0.25000000  1
  Li  Li5  1  0.74144600  0.74144600  0.50000000  1
  Li  Li6  1  0.75855400  0.75855400  0.00000000  1
  Li  Li7  1  0.51994800  0.98005200  0.25000000  1
  V  V8  1  0.34200600  0.15799400  0.25000000  1
  V  V9  1  0.15799400  0.34200600  0.75000000  1
  V  V10  1  0.84200600  0.65799400  0.25000000  1
  V  V11  1  0.65799400  0.84200600  0.75000000  1
  Si  Si12  1  0.76307300  0.02155400  0.48842700  1
  Si  Si13  1  0.70619700  0.07807800  0.95317500  1
  Si  Si14  1  0.18170400  0.04375500  0.80519400  1
  Si  Si15  1  0.97844600  0.23692700  0.48842700  1
  Si  Si16  1  0.57807800  0.20619700  0.45317500  1
  Si  Si17  1  0.92192200  0.29380300  0.95317500  1
  Si  Si18  1  0.52155400  0.26307300  0.98842700  1
  Si  Si19  1  0.04375500  0.18170400  0.19480600  1
  Si  Si20  1  0.45624500  0.31829600  0.69480600  1
  Si  Si21  1  0.79380300  0.42192200  0.45317500  1
  Si  Si22  1  0.73692700  0.47844600  0.98842700  1
  Si  Si23  1  0.31829600  0.45624500  0.30519400  1
  Si  Si24  1  0.68170400  0.54375500  0.69480600  1
  Si  Si25  1  0.26307300  0.52155400  0.01157300  1
  Si  Si26  1  0.20619700  0.57807800  0.54682500  1
  Si  Si27  1  0.54375500  0.68170400  0.30519400  1
  Si  Si28  1  0.95624500  0.81829600  0.80519400  1
  Si  Si29  1  0.47844600  0.73692700  0.01157300  1
  Si  Si30  1  0.07807800  0.70619700  0.04682500  1
  Si  Si31  1  0.42192200  0.79380300  0.54682500  1
  Si  Si32  1  0.02155400  0.76307300  0.51157300  1
  Si  Si33  1  0.81829600  0.95624500  0.19480600  1
  Si  Si34  1  0.29380300  0.92192200  0.04682500  1
  Si  Si35  1  0.23692700  0.97844600  0.51157300  1
  O  O36  1  0.64236700  0.00347900  0.82557800  1
  O  O37  1  0.94245300  0.05754700  0.19353700  1
  O  O38  1  0.90169900  0.09830100  0.50271000  1
  O  O39  1  0.27629600  0.01326400  0.92227500  1
  O  O40  1  0.25812200  0.03145600  0.66555400  1
  O  O41  1  0.66357200  0.11169500  0.51383000  1
  O  O42  1  0.83674100  0.16325900  0.91462400  1
  O  O43  1  0.50347900  0.14236700  0.32557800  1
  O  O44  1  0.25813100  0.09302600  0.40967600  1
  O  O45  1  0.61169500  0.16357200  0.01383000  1
  O  O46  1  0.18024800  0.15602300  0.16608200  1
  O  O47  1  0.48673600  0.22370400  0.57772500  1
  O  O48  1  0.15602300  0.18024800  0.83391800  1
  O  O49  1  0.46854400  0.24187800  0.83444600  1
  O  O50  1  0.40697400  0.24186900  0.09032400  1
  O  O51  1  0.88830500  0.33642800  0.51383000  1
  O  O52  1  0.99652100  0.35763300  0.82557800  1
  O  O53  1  0.66325900  0.33674100  0.41462400  1
  O  O54  1  0.09302600  0.25813100  0.59032400  1
  O  O55  1  0.83642800  0.38830500  0.01383000  1
  O  O56  1  0.03145600  0.25812200  0.33444600  1
  O  O57  1  0.34397700  0.31975200  0.33391800  1
  O  O58  1  0.01326400  0.27629600  0.07772500  1
  O  O59  1  0.31975200  0.34397700  0.66608200  1
  O  O60  1  0.59830100  0.40169900  0.00271000  1
  O  O61  1  0.55754700  0.44245300  0.69353700  1
  O  O62  1  0.85763300  0.49652100  0.32557800  1
  O  O63  1  0.24186900  0.40697400  0.90967600  1
  O  O64  1  0.77629600  0.51326400  0.57772500  1
  O  O65  1  0.75812200  0.53145600  0.83444600  1
  O  O66  1  0.24187800  0.46854400  0.16555400  1
  O  O67  1  0.22370400  0.48673600  0.42227500  1
  O  O68  1  0.75813100  0.59302600  0.09032400  1
  O  O69  1  0.14236700  0.50347900  0.67442200  1
  O  O70  1  0.44245300  0.55754700  0.30646300  1
  O  O71  1  0.40169900  0.59830100  0.99729000  1
  O  O72  1  0.68024800  0.65602300  0.33391800  1
  O  O73  1  0.98673600  0.72370400  0.92227500  1
  O  O74  1  0.65602300  0.68024800  0.66608200  1
  O  O75  1  0.96854400  0.74187800  0.66555400  1
  O  O76  1  0.16357200  0.61169500  0.98617000  1
  O  O77  1  0.90697400  0.74186900  0.40967600  1
  O  O78  1  0.33674100  0.66325900  0.58537600  1
  O  O79  1  0.00347900  0.64236700  0.17442200  1
  O  O80  1  0.11169500  0.66357200  0.48617000  1
  O  O81  1  0.59302600  0.75813100  0.90967600  1
  O  O82  1  0.53145600  0.75812200  0.16555400  1
  O  O83  1  0.84397700  0.81975200  0.16608200  1
  O  O84  1  0.51326400  0.77629600  0.42227500  1
  O  O85  1  0.81975200  0.84397700  0.83391800  1
  O  O86  1  0.38830500  0.83642800  0.98617000  1
  O  O87  1  0.74186900  0.90697400  0.59032400  1
  O  O88  1  0.49652100  0.85763300  0.67442200  1
  O  O89  1  0.16325900  0.83674100  0.08537600  1
  O  O90  1  0.33642800  0.88830500  0.48617000  1
  O  O91  1  0.74187800  0.96854400  0.33444600  1
  O  O92  1  0.72370400  0.98673600  0.07772500  1
  O  O93  1  0.09830100  0.90169900  0.49729000  1
  O  O94  1  0.05754700  0.94245300  0.80646300  1
  O  O95  1  0.35763300  0.99652100  0.17442200  1
