# generated using pymatgen
data_LiFe2(PO4)2
_symmetry_space_group_name_H-M   'P 1'
_cell_length_a   5.18869900
_cell_length_b   10.34140700
_cell_length_c   13.73841800
_cell_angle_alpha   90.00000000
_cell_angle_beta   90.00000000
_cell_angle_gamma   90.00000000
_symmetry_Int_Tables_number   1
_chemical_formula_structural   LiFe2(PO4)2
_chemical_formula_sum   'Li4 Fe8 P8 O32'
_cell_volume   737.18219005
_cell_formula_units_Z   4
loop_
 _symmetry_equiv_pos_site_id
 _symmetry_equiv_pos_as_xyz
  1  'x, y, z'
loop_
 _atom_site_type_symbol
 _atom_site_label
 _atom_site_symmetry_multiplicity
 _atom_site_fract_x
 _atom_site_fract_y
 _atom_site_fract_z
 _atom_site_occupancy
  Li  Li0  1  0.54183300  0.21284900  0.99824300  1
  Li  Li1  1  0.54183300  0.28715100  0.49824300  1
  Li  Li2  1  0.45816700  0.71284900  0.99824300  1
  Li  Li3  1  0.45816700  0.78715100  0.49824300  1
  Fe  Fe4  1  0.91876200  0.03437500  0.49790400  1
  Fe  Fe5  1  0.54568000  0.21501900  0.25079500  1
  Fe  Fe6  1  0.54568000  0.28498100  0.75079500  1
  Fe  Fe7  1  0.91876200  0.46562500  0.99790400  1
  Fe  Fe8  1  0.08123800  0.53437500  0.49790400  1
  Fe  Fe9  1  0.45432000  0.71501900  0.25079500  1
  Fe  Fe10  1  0.45432000  0.78498100  0.75079500  1
  Fe  Fe11  1  0.08123800  0.96562500  0.99790400  1
  P  P12  1  0.43573600  0.03628900  0.62390900  1
  P  P13  1  0.04647400  0.21756500  0.87206500  1
  P  P14  1  0.04647400  0.28243500  0.37206500  1
  P  P15  1  0.43573600  0.46371100  0.12390900  1
  P  P16  1  0.56426400  0.53628900  0.62390900  1
  P  P17  1  0.95352600  0.71756500  0.87206500  1
  P  P18  1  0.95352600  0.78243500  0.37206500  1
  P  P19  1  0.56426400  0.96371100  0.12390900  1
  O  O20  1  0.14591200  0.01015700  0.60204500  1
  O  O21  1  0.48622700  0.02756800  0.21885700  1
  O  O22  1  0.41567500  0.02738100  0.03469600  1
  O  O23  1  0.99865400  0.07063300  0.89147500  1
  O  O24  1  0.49632900  0.18299400  0.62239500  1
  O  O25  1  0.92569500  0.24158300  0.27652700  1
  O  O26  1  0.90668300  0.21239100  0.46066500  1
  O  O27  1  0.33902800  0.24758700  0.87643400  1
  O  O28  1  0.33902800  0.25241300  0.37643400  1
  O  O29  1  0.90668300  0.28760900  0.96066500  1
  O  O30  1  0.92569500  0.25841700  0.77652700  1
  O  O31  1  0.49632900  0.31700600  0.12239500  1
  O  O32  1  0.99865400  0.42936700  0.39147500  1
  O  O33  1  0.41567500  0.47261900  0.53469600  1
  O  O34  1  0.48622700  0.47243200  0.71885700  1
  O  O35  1  0.14591200  0.48984300  0.10204500  1
  O  O36  1  0.85408800  0.51015700  0.60204500  1
  O  O37  1  0.51377300  0.52756800  0.21885700  1
  O  O38  1  0.58432500  0.52738100  0.03469600  1
  O  O39  1  0.00134600  0.57063300  0.89147500  1
  O  O40  1  0.50367100  0.68299400  0.62239500  1
  O  O41  1  0.07430500  0.74158300  0.27652700  1
  O  O42  1  0.09331700  0.71239100  0.46066500  1
  O  O43  1  0.66097200  0.74758700  0.87643400  1
  O  O44  1  0.66097200  0.75241300  0.37643400  1
  O  O45  1  0.09331700  0.78760900  0.96066500  1
  O  O46  1  0.07430500  0.75841700  0.77652700  1
  O  O47  1  0.50367100  0.81700600  0.12239500  1
  O  O48  1  0.00134600  0.92936700  0.39147500  1
  O  O49  1  0.58432500  0.97261900  0.53469600  1
  O  O50  1  0.51377300  0.97243200  0.71885700  1
  O  O51  1  0.85408800  0.98984300  0.10204500  1
