# generated using pymatgen
data_Li2VCrO4
_symmetry_space_group_name_H-M   'P 1'
_cell_length_a   5.14209800
_cell_length_b   5.17009993
_cell_length_c   6.00615782
_cell_angle_alpha   106.85053440
_cell_angle_beta   90.02622410
_cell_angle_gamma   100.02196193
_symmetry_Int_Tables_number   1
_chemical_formula_structural   Li2VCrO4
_chemical_formula_sum   'Li4 V2 Cr2 O8'
_cell_volume   150.26740225
_cell_formula_units_Z   2
loop_
 _symmetry_equiv_pos_site_id
 _symmetry_equiv_pos_as_xyz
  1  'x, y, z'
loop_
 _atom_site_type_symbol
 _atom_site_label
 _atom_site_symmetry_multiplicity
 _atom_site_fract_x
 _atom_site_fract_y
 _atom_site_fract_z
 _atom_site_occupancy
  Li  Li0  1  0.00000000  0.00000000  0.00000000  1
  Li  Li1  1  0.49832100  0.00338900  0.75503800  1
  Li  Li2  1  0.00000000  0.00000000  0.50000000  1
  Li  Li3  1  0.50167900  0.99661100  0.24496200  1
  V  V4  1  0.75020600  0.50058600  0.62461900  1
  V  V5  1  0.24979400  0.49941400  0.37538100  1
  Cr  Cr6  1  0.24959600  0.49891700  0.87672800  1
  Cr  Cr7  1  0.75040400  0.50108300  0.12327200  1
  O  O8  1  0.87977800  0.27228000  0.82199100  1
  O  O9  1  0.62285400  0.72390700  0.93113300  1
  O  O10  1  0.37484800  0.27395400  0.56892800  1
  O  O11  1  0.12049500  0.72840000  0.68875200  1
  O  O12  1  0.87950500  0.27160000  0.31124800  1
  O  O13  1  0.62515200  0.72604600  0.43107200  1
  O  O14  1  0.37714600  0.27609300  0.06886700  1
  O  O15  1  0.12022200  0.72772000  0.17800900  1
