# generated using pymatgen
data_Li2Mn3NbO8
_symmetry_space_group_name_H-M   'P 1'
_cell_length_a   5.97644976
_cell_length_b   5.97644976
_cell_length_c   9.91504846
_cell_angle_alpha   88.03899785
_cell_angle_beta   88.03899785
_cell_angle_gamma   119.24686378
_symmetry_Int_Tables_number   1
_chemical_formula_structural   Li2Mn3NbO8
_chemical_formula_sum   'Li4 Mn6 Nb2 O16'
_cell_volume   308.29146843
_cell_formula_units_Z   2
loop_
 _symmetry_equiv_pos_site_id
 _symmetry_equiv_pos_as_xyz
  1  'x, y, z'
loop_
 _atom_site_type_symbol
 _atom_site_label
 _atom_site_symmetry_multiplicity
 _atom_site_fract_x
 _atom_site_fract_y
 _atom_site_fract_z
 _atom_site_occupancy
  Li  Li0  1  0.34306400  0.67505400  0.90380000  1
  Li  Li1  1  0.00108100  0.00221900  0.98916200  1
  Li  Li2  1  0.00221900  0.00108100  0.48916200  1
  Li  Li3  1  0.67505400  0.34306400  0.40380000  1
  Mn  Mn4  1  0.65944600  0.83140200  0.21542200  1
  Mn  Mn5  1  0.17104600  0.33759700  0.21408200  1
  Mn  Mn6  1  0.16937800  0.83155900  0.21331000  1
  Mn  Mn7  1  0.83155900  0.16937800  0.71331000  1
  Mn  Mn8  1  0.83140200  0.65944600  0.71542200  1
  Mn  Mn9  1  0.33759700  0.17104600  0.71408200  1
  Nb  Nb10  1  0.35383400  0.68757100  0.48970600  1
  Nb  Nb11  1  0.68757100  0.35383400  0.98970600  1
  O  O12  1  0.65293300  0.82737500  0.58758800  1
  O  O13  1  0.49744900  0.53448500  0.34693700  1
  O  O14  1  0.34185300  0.67376600  0.11572800  1
  O  O15  1  0.98928200  0.99087200  0.30241200  1
  O  O16  1  0.99087200  0.98928200  0.80241200  1
  O  O17  1  0.16185600  0.31836100  0.59383300  1
  O  O18  1  0.47597900  0.97356500  0.35713900  1
  O  O19  1  0.03999400  0.51433400  0.33392300  1
  O  O20  1  0.80481300  0.14011600  0.09087700  1
  O  O21  1  0.14011600  0.80481300  0.59087700  1
  O  O22  1  0.97356500  0.47598000  0.85713900  1
  O  O23  1  0.51433400  0.03999400  0.83392300  1
  O  O24  1  0.67376600  0.34185300  0.61572800  1
  O  O25  1  0.82737500  0.65293300  0.08758800  1
  O  O26  1  0.53448500  0.49744900  0.84693700  1
  O  O27  1  0.31836100  0.16185600  0.09383300  1
