# generated using pymatgen
data_Li3MnPCO7
_symmetry_space_group_name_H-M   'P 1'
_cell_length_a   6.48311300
_cell_length_b   8.60349800
_cell_length_c   9.84660508
_cell_angle_alpha   85.41329881
_cell_angle_beta   90.00000000
_cell_angle_gamma   90.00000000
_symmetry_Int_Tables_number   1
_chemical_formula_structural   Li3MnPCO7
_chemical_formula_sum   'Li12 Mn4 P4 C4 O28'
_cell_volume   547.45962929
_cell_formula_units_Z   4
loop_
 _symmetry_equiv_pos_site_id
 _symmetry_equiv_pos_as_xyz
  1  'x, y, z'
loop_
 _atom_site_type_symbol
 _atom_site_label
 _atom_site_symmetry_multiplicity
 _atom_site_fract_x
 _atom_site_fract_y
 _atom_site_fract_z
 _atom_site_occupancy
  Li  Li0  1  0.74937800  0.89711100  0.61349200  1
  Li  Li1  1  0.75062200  0.89711100  0.11349200  1
  Li  Li2  1  0.98826700  0.71362700  0.88255600  1
  Li  Li3  1  0.51173300  0.71362700  0.38255600  1
  Li  Li4  1  0.25527500  0.64674100  0.61038500  1
  Li  Li5  1  0.24472500  0.64674100  0.11038500  1
  Li  Li6  1  0.75527500  0.35325900  0.88961500  1
  Li  Li7  1  0.74472500  0.35325900  0.38961500  1
  Li  Li8  1  0.48826700  0.28637300  0.61744400  1
  Li  Li9  1  0.01173300  0.28637300  0.11744400  1
  Li  Li10  1  0.24937800  0.10288900  0.88650800  1
  Li  Li11  1  0.25062200  0.10288900  0.38650800  1
  Mn  Mn12  1  0.50188600  0.73165100  0.87069800  1
  Mn  Mn13  1  0.99811400  0.73165100  0.37069800  1
  Mn  Mn14  1  0.00188600  0.26834900  0.62930200  1
  Mn  Mn15  1  0.49811400  0.26834900  0.12930200  1
  P  P16  1  0.74811800  0.59287300  0.63993800  1
  P  P17  1  0.75188200  0.59287300  0.13993800  1
  P  P18  1  0.24811800  0.40712700  0.86006200  1
  P  P19  1  0.25188200  0.40712700  0.36006200  1
  C  C20  1  0.25215700  0.95788600  0.64795000  1
  C  C21  1  0.24784300  0.95788600  0.14795000  1
  C  C22  1  0.75215700  0.04211400  0.85205000  1
  C  C23  1  0.74784300  0.04211400  0.35205000  1
  O  O24  1  0.23957400  0.93013400  0.52221700  1
  O  O25  1  0.75029800  0.89655700  0.81714700  1
  O  O26  1  0.26042600  0.93013400  0.02221700  1
  O  O27  1  0.26472800  0.84639700  0.74426300  1
  O  O28  1  0.74970200  0.89655700  0.31714700  1
  O  O29  1  0.23527200  0.84639700  0.24426300  1
  O  O30  1  0.94141200  0.68735000  0.58670300  1
  O  O31  1  0.56103200  0.69315400  0.58934000  1
  O  O32  1  0.93896800  0.69315400  0.08934000  1
  O  O33  1  0.55858800  0.68735000  0.08670300  1
  O  O34  1  0.24456000  0.57367000  0.91001800  1
  O  O35  1  0.74944400  0.57775800  0.79952000  1
  O  O36  1  0.25544000  0.57367000  0.41001800  1
  O  O37  1  0.75055600  0.57775800  0.29952000  1
  O  O38  1  0.24944400  0.42224200  0.70048000  1
  O  O39  1  0.74456000  0.42633000  0.58998200  1
  O  O40  1  0.25055600  0.42224200  0.20048000  1
  O  O41  1  0.75544000  0.42633000  0.08998200  1
  O  O42  1  0.06103200  0.30684600  0.91066000  1
  O  O43  1  0.44141200  0.31265000  0.91329700  1
  O  O44  1  0.43896800  0.30684600  0.41066000  1
  O  O45  1  0.05858800  0.31265000  0.41329700  1
  O  O46  1  0.76472800  0.15360300  0.75573700  1
  O  O47  1  0.25029800  0.10344300  0.68285300  1
  O  O48  1  0.73527200  0.15360300  0.25573700  1
  O  O49  1  0.73957400  0.06986600  0.97778300  1
  O  O50  1  0.24970200  0.10344300  0.18285300  1
  O  O51  1  0.76042600  0.06986600  0.47778300  1
