# generated using pymatgen
data_Li2MnV3O8
_symmetry_space_group_name_H-M   'P 1'
_cell_length_a   8.50221100
_cell_length_b   8.50221100
_cell_length_c   8.50221100
_cell_angle_alpha   90.00000000
_cell_angle_beta   90.00000000
_cell_angle_gamma   90.00000000
_symmetry_Int_Tables_number   1
_chemical_formula_structural   Li2MnV3O8
_chemical_formula_sum   'Li8 Mn4 V12 O32'
_cell_volume   614.60435892
_cell_formula_units_Z   4
loop_
 _symmetry_equiv_pos_site_id
 _symmetry_equiv_pos_as_xyz
  1  'x, y, z'
loop_
 _atom_site_type_symbol
 _atom_site_label
 _atom_site_symmetry_multiplicity
 _atom_site_fract_x
 _atom_site_fract_y
 _atom_site_fract_z
 _atom_site_occupancy
  Li  Li0  1  0.12736000  0.87264000  0.37264000  1
  Li  Li1  1  0.25131900  0.75131900  0.74868100  1
  Li  Li2  1  0.24868100  0.24868100  0.24868100  1
  Li  Li3  1  0.37264000  0.12736000  0.87264000  1
  Li  Li4  1  0.62736000  0.62736000  0.62736000  1
  Li  Li5  1  0.75131900  0.74868100  0.25131900  1
  Li  Li6  1  0.74868100  0.25131900  0.75131900  1
  Li  Li7  1  0.87264000  0.37264000  0.12736000  1
  Mn  Mn8  1  0.99601100  0.50398900  0.49601100  1
  Mn  Mn9  1  0.50398900  0.49601100  0.99601100  1
  Mn  Mn10  1  0.49601100  0.99601100  0.50398900  1
  Mn  Mn11  1  0.00398900  0.00398900  0.00398900  1
  V  V12  1  0.12621100  0.61947500  0.12149500  1
  V  V13  1  0.11947500  0.37850500  0.87378900  1
  V  V14  1  0.12149500  0.12621100  0.61947500  1
  V  V15  1  0.37850500  0.87378900  0.11947500  1
  V  V16  1  0.38052500  0.62149500  0.37378900  1
  V  V17  1  0.37378900  0.38052500  0.62149500  1
  V  V18  1  0.62621100  0.88052500  0.87850500  1
  V  V19  1  0.61947500  0.12149500  0.12621100  1
  V  V20  1  0.62149500  0.37378900  0.38052500  1
  V  V21  1  0.87850500  0.62621100  0.88052500  1
  V  V22  1  0.88052500  0.87850500  0.62621100  1
  V  V23  1  0.87378900  0.11947500  0.37850500  1
  O  O24  1  0.10313400  0.13078600  0.39934200  1
  O  O25  1  0.10065800  0.89686600  0.63078600  1
  O  O26  1  0.11526900  0.61526900  0.88473100  1
  O  O27  1  0.13078600  0.39934200  0.10313400  1
  O  O28  1  0.12198500  0.14729200  0.85012500  1
  O  O29  1  0.13589700  0.36410300  0.63589700  1
  O  O30  1  0.14987500  0.62198500  0.35270800  1
  O  O31  1  0.14729200  0.85012500  0.12198500  1
  O  O32  1  0.35270800  0.14987500  0.62198500  1
  O  O33  1  0.35012500  0.37801500  0.85270800  1
  O  O34  1  0.36410300  0.63589700  0.13589700  1
  O  O35  1  0.37801500  0.85270800  0.35012500  1
  O  O36  1  0.36921400  0.60065800  0.60313400  1
  O  O37  1  0.38473100  0.38473100  0.38473100  1
  O  O38  1  0.39934200  0.10313400  0.13078600  1
  O  O39  1  0.39686600  0.86921400  0.89934200  1
  O  O40  1  0.60313400  0.36921400  0.60065800  1
  O  O41  1  0.60065800  0.60313400  0.36921400  1
  O  O42  1  0.61526900  0.88473100  0.11526900  1
  O  O43  1  0.63078600  0.10065800  0.89686600  1
  O  O44  1  0.62198500  0.35270800  0.14987500  1
  O  O45  1  0.63589700  0.13589700  0.36410300  1
  O  O46  1  0.64987500  0.87801500  0.64729200  1
  O  O47  1  0.64729200  0.64987500  0.87801500  1
  O  O48  1  0.85270800  0.35012500  0.37801500  1
  O  O49  1  0.85012500  0.12198500  0.14729200  1
  O  O50  1  0.86410300  0.86410300  0.86410300  1
  O  O51  1  0.87801500  0.64729200  0.64987500  1
  O  O52  1  0.86921400  0.89934200  0.39686600  1
  O  O53  1  0.88473100  0.11526900  0.61526900  1
  O  O54  1  0.89934200  0.39686600  0.86921400  1
  O  O55  1  0.89686600  0.63078600  0.10065800  1
