# generated using pymatgen
data_Li4Cr3Co2Sb3O16
_symmetry_space_group_name_H-M   'P 1'
_cell_length_a   6.09590917
_cell_length_b   6.09590917
_cell_length_c   9.85675949
_cell_angle_alpha   89.66128674
_cell_angle_beta   89.66128674
_cell_angle_gamma   60.36174730
_symmetry_Int_Tables_number   1
_chemical_formula_structural   Li4Cr3Co2Sb3O16
_chemical_formula_sum   'Li4 Cr3 Co2 Sb3 O16'
_cell_volume   318.34877936
_cell_formula_units_Z   1
loop_
 _symmetry_equiv_pos_site_id
 _symmetry_equiv_pos_as_xyz
  1  'x, y, z'
loop_
 _atom_site_type_symbol
 _atom_site_label
 _atom_site_symmetry_multiplicity
 _atom_site_fract_x
 _atom_site_fract_y
 _atom_site_fract_z
 _atom_site_occupancy
  Li  Li0  1  0.67091000  0.67091000  0.90012800  1
  Li  Li1  1  0.00985200  0.00985200  0.00567200  1
  Li  Li2  1  0.01135900  0.01135900  0.49059300  1
  Li  Li3  1  0.33601800  0.33601800  0.37288900  1
  Cr  Cr4  1  0.83065500  0.33731500  0.21516700  1
  Cr  Cr5  1  0.33731500  0.83065500  0.21516700  1
  Cr  Cr6  1  0.16798400  0.16798400  0.71584000  1
  Co  Co7  1  0.65377100  0.65377100  0.47594300  1
  Co  Co8  1  0.32708400  0.32708400  0.01791600  1
  Sb  Sb9  1  0.82974600  0.82974600  0.21524400  1
  Sb  Sb10  1  0.66224600  0.16781000  0.71571000  1
  Sb  Sb11  1  0.16781000  0.66224600  0.71571000  1
  O  O12  1  0.83805200  0.31085400  0.60627600  1
  O  O13  1  0.51731500  0.51731500  0.33118400  1
  O  O14  1  0.66724000  0.66724000  0.10531000  1
  O  O15  1  0.99847600  0.99847600  0.31150300  1
  O  O16  1  0.99980000  0.99980000  0.81971500  1
  O  O17  1  0.31085400  0.83805200  0.60627600  1
  O  O18  1  0.96628500  0.51932600  0.33436600  1
  O  O19  1  0.51932600  0.96628500  0.33436600  1
  O  O20  1  0.15918600  0.15918600  0.10614500  1
  O  O21  1  0.84436700  0.84436700  0.60266800  1
  O  O22  1  0.48740800  0.03205600  0.82820100  1
  O  O23  1  0.03205600  0.48740800  0.82820100  1
  O  O24  1  0.33313800  0.33313800  0.60304600  1
  O  O25  1  0.68537400  0.15204300  0.10175400  1
  O  O26  1  0.48687900  0.48687900  0.83085400  1
  O  O27  1  0.15204300  0.68537400  0.10175400  1
