# generated using pymatgen
data_Li5V5O12
_symmetry_space_group_name_H-M   'P 1'
_cell_length_a   5.05749900
_cell_length_b   9.20175632
_cell_length_c   9.46256693
_cell_angle_alpha   84.51200522
_cell_angle_beta   86.25763039
_cell_angle_gamma   84.95902677
_symmetry_Int_Tables_number   1
_chemical_formula_structural   Li5V5O12
_chemical_formula_sum   'Li10 V10 O24'
_cell_volume   435.93504156
_cell_formula_units_Z   2
loop_
 _symmetry_equiv_pos_site_id
 _symmetry_equiv_pos_as_xyz
  1  'x, y, z'
loop_
 _atom_site_type_symbol
 _atom_site_label
 _atom_site_symmetry_multiplicity
 _atom_site_fract_x
 _atom_site_fract_y
 _atom_site_fract_z
 _atom_site_occupancy
  Li  Li0  1  0.25361200  0.07269800  0.00545900  1
  Li  Li1  1  0.22444300  0.42789500  0.00038500  1
  Li  Li2  1  0.39491400  0.53370000  0.24694500  1
  Li  Li3  1  0.32974500  0.86486300  0.26879300  1
  Li  Li4  1  0.47727100  0.67829500  0.50144000  1
  Li  Li5  1  0.53132600  0.34011600  0.48759200  1
  Li  Li6  1  0.73464100  0.92210400  0.00859100  1
  Li  Li7  1  0.89051100  0.04139800  0.24855400  1
  Li  Li8  1  0.88370500  0.39867300  0.22879600  1
  Li  Li9  1  0.98513700  0.16922100  0.49187500  1
  V  V10  1  0.00337900  0.51265000  0.49569100  1
  V  V11  1  0.15182700  0.28435900  0.74566400  1
  V  V12  1  0.10127100  0.96440200  0.74295800  1
  V  V13  1  0.26878300  0.74129800  0.01776500  1
  V  V14  1  0.35584800  0.21438600  0.25453500  1
  V  V15  1  0.52935400  0.99305000  0.48760700  1
  V  V16  1  0.61704400  0.46003300  0.75130500  1
  V  V17  1  0.74736100  0.24559700  0.00804800  1
  V  V18  1  0.64191100  0.77717900  0.76151400  1
  V  V19  1  0.86293000  0.70778700  0.24978700  1
  O  O20  1  0.05506400  0.22792300  0.12554900  1
  O  O21  1  0.08024600  0.58636900  0.11717300  1
  O  O22  1  0.04041800  0.87245100  0.13525700  1
  O  O23  1  0.19739400  0.35783700  0.36409800  1
  O  O24  1  0.16266400  0.65989800  0.39528400  1
  O  O25  1  0.22700000  0.04487500  0.36294800  1
  O  O26  1  0.28212500  0.12773700  0.63580600  1
  O  O27  1  0.30330300  0.44784700  0.63186900  1
  O  O28  1  0.36628700  0.84282100  0.62735100  1
  O  O29  1  0.57223200  0.09149900  0.11327600  1
  O  O30  1  0.44640100  0.29004800  0.86710900  1
  O  O31  1  0.55262000  0.36917300  0.13012300  1
  O  O32  1  0.45975800  0.62450800  0.86601100  1
  O  O33  1  0.39587600  0.90899400  0.88120700  1
  O  O34  1  0.53986600  0.73807400  0.12770300  1
  O  O35  1  0.65444400  0.16751900  0.38819800  1
  O  O36  1  0.66803800  0.85650200  0.37765500  1
  O  O37  1  0.71183600  0.53725000  0.36877400  1
  O  O38  1  0.77598200  0.62591600  0.63405400  1
  O  O39  1  0.85310700  0.33927700  0.60868200  1
  O  O40  1  0.82059600  0.96779500  0.63193300  1
  O  O41  1  0.96949700  0.11421000  0.86999400  1
  O  O42  1  0.92175600  0.39519800  0.87521700  1
  O  O43  1  0.93364500  0.79818100  0.86142400  1
