# generated using pymatgen
data_Li6MnV3(PO4)6
_symmetry_space_group_name_H-M   'P 1'
_cell_length_a   8.68009890
_cell_length_b   8.72944164
_cell_length_c   15.05001651
_cell_angle_alpha   106.09723133
_cell_angle_beta   89.99615931
_cell_angle_gamma   61.38040888
_symmetry_Int_Tables_number   1
_chemical_formula_structural   Li6MnV3(PO4)6
_chemical_formula_sum   'Li12 Mn2 V6 P12 O48'
_cell_volume   949.78418023
_cell_formula_units_Z   2
loop_
 _symmetry_equiv_pos_site_id
 _symmetry_equiv_pos_as_xyz
  1  'x, y, z'
loop_
 _atom_site_type_symbol
 _atom_site_label
 _atom_site_symmetry_multiplicity
 _atom_site_fract_x
 _atom_site_fract_y
 _atom_site_fract_z
 _atom_site_occupancy
  Li  Li0  1  0.30683573  0.74836674  0.32267126  1
  Li  Li1  1  0.18410210  0.71059630  0.55354231  1
  Li  Li2  1  0.68253573  0.71227085  0.05150437  1
  Li  Li3  1  0.16889304  0.25231852  0.19200271  1
  Li  Li4  1  0.21025202  0.67770748  0.82694947  1
  Li  Li5  1  0.71088060  0.67764235  0.32745913  1
  Li  Li6  1  0.26351810  0.21006726  0.63052377  1
  Li  Li7  1  0.76035904  0.21186679  0.13269657  1
  Li  Li8  1  0.79942923  0.74998326  0.81838386  1
  Li  Li9  1  0.67142182  0.24762078  0.68466353  1
  Li  Li10  1  0.36345636  0.17693487  0.98048695  1
  Li  Li11  1  0.86580055  0.17675298  0.48019173  1
  Mn  Mn12  1  0.78570024  0.85797863  0.57443811  1
  Mn  Mn13  1  0.53172519  0.35823923  0.32045220  1
  V  V14  1  0.28514565  0.85618360  0.07255692  1
  V  V15  1  0.03275753  0.35704953  0.82096269  1
  V  V16  1  0.47409974  0.64044882  0.67899482  1
  V  V17  1  0.21839237  0.14031664  0.42337963  1
  V  V18  1  0.97205746  0.63965218  0.17939488  1
  V  V19  1  0.71700622  0.14042069  0.92406166  1
  P  P20  1  0.01433976  0.95616050  0.73521316  1
  P  P21  1  0.51621261  0.95292595  0.23472437  1
  P  P22  1  0.02301871  0.25162808  0.02421464  1
  P  P23  1  0.09836484  0.54035109  0.37599101  1
  P  P24  1  0.40413016  0.45621984  0.12569835  1
  P  P25  1  0.47704861  0.75904149  0.47894906  1
  P  P26  1  0.52028363  0.25884181  0.52209870  1
  P  P27  1  0.59810386  0.53950296  0.87505295  1
  P  P28  1  0.90484324  0.45358069  0.62499031  1
  P  P29  1  0.97450241  0.75158259  0.97602594  1
  P  P30  1  0.48662122  0.04027208  0.76301534  1
  P  P31  1  0.98699467  0.03807577  0.26238059  1
  O  O32  1  0.02034415  0.84073133  0.23959888  1
  O  O33  1  0.46463199  0.90917415  0.13523559  1
  O  O34  1  0.40260946  0.94046973  0.30955746  1
  O  O35  1  0.00941587  0.68045744  0.47435599  1
  O  O36  1  0.29651148  0.92357381  0.47420004  1
  O  O37  1  0.35910604  0.64522255  0.12241580  1
  O  O38  1  0.23500323  0.44609121  0.14650879  1
  O  O39  1  0.26458266  0.55480419  0.35217675  1
  O  O40  1  0.20545243  0.79566099  0.72578296  1
  O  O41  1  0.70787162  0.79288178  0.22691090  1
  O  O42  1  0.20686312  0.09746741  0.03560044  1
  O  O43  1  0.15410904  0.34096290  0.36909674  1
  O  O44  1  0.10770304  0.04740620  0.19004007  1
  O  O45  1  0.01060371  0.29519425  0.53254154  1
  O  O46  1  0.12100224  0.80393242  0.99358634  1
  O  O47  1  0.43079892  0.69447259  0.55553709  1
  O  O48  1  0.51262748  0.29393686  0.03504745  1
  O  O49  1  0.02927006  0.40841503  0.70008429  1
  O  O50  1  0.04944504  0.59796268  0.87799832  1
  O  O51  1  0.62485665  0.81092853  0.49697071  1
  O  O52  1  0.92711850  0.68956971  0.05341770  1
  O  O53  1  0.03239588  0.08493086  0.36293135  1
  O  O54  1  0.52600377  0.41989810  0.20336840  1
  O  O55  1  0.54793807  0.61072920  0.38044242  1
  O  O56  1  0.52334596  0.84177546  0.73984962  1
  O  O57  1  0.49370617  0.14299401  0.25665559  1
  O  O58  1  0.43664740  0.42365352  0.61465163  1
  O  O59  1  0.94604370  0.41297244  0.11775556  1
  O  O60  1  0.95871703  0.92017510  0.63551168  1
  O  O61  1  0.46942452  0.58547604  0.80212805  1
  O  O62  1  0.07055802  0.30383701  0.94237827  1
  O  O63  1  0.38212524  0.19424213  0.50690481  1
  O  O64  1  0.96865437  0.58523319  0.30358992  1
  O  O65  1  0.56744887  0.31069857  0.43925360  1
  O  O66  1  0.88174371  0.19111039  0.00902270  1
  O  O67  1  0.90013568  0.94396111  0.80926719  1
  O  O68  1  0.50610053  0.68175633  0.97217162  1
  O  O69  1  0.79589420  0.91393602  0.96812168  1
  O  O70  1  0.86037421  0.64446307  0.62669637  1
  O  O71  1  0.29491516  0.18064775  0.75965892  1
  O  O72  1  0.79624576  0.18099976  0.25790886  1
  O  O73  1  0.73554880  0.44184633  0.64568785  1
  O  O74  1  0.76598739  0.55145731  0.85272529  1
  O  O75  1  0.70373341  0.11123948  0.53600017  1
  O  O76  1  0.65110305  0.34195061  0.87022161  1
  O  O77  1  0.60459477  0.05424304  0.69122944  1
  O  O78  1  0.53037328  0.08728724  0.86416583  1
  O  O79  1  0.99448186  0.14639881  0.76036675  1
