# generated using pymatgen
data_Li3V2F9
_symmetry_space_group_name_H-M   'P 1'
_cell_length_a   5.13143159
_cell_length_b   5.13143159
_cell_length_c   14.25495900
_cell_angle_alpha   90.00000000
_cell_angle_beta   90.00000000
_cell_angle_gamma   119.99999475
_symmetry_Int_Tables_number   1
_chemical_formula_structural   Li3V2F9
_chemical_formula_sum   'Li6 V4 F18'
_cell_volume   325.06762230
_cell_formula_units_Z   2
loop_
 _symmetry_equiv_pos_site_id
 _symmetry_equiv_pos_as_xyz
  1  'x, y, z'
loop_
 _atom_site_type_symbol
 _atom_site_label
 _atom_site_symmetry_multiplicity
 _atom_site_fract_x
 _atom_site_fract_y
 _atom_site_fract_z
 _atom_site_occupancy
  Li  Li0  1  0.33333300  0.66666700  0.18524000  1
  Li  Li1  1  0.33333300  0.66666700  0.48293000  1
  Li  Li2  1  0.33333300  0.66666700  0.98293000  1
  Li  Li3  1  0.33333300  0.66666700  0.68524000  1
  Li  Li4  1  0.66666700  0.33333300  0.00054700  1
  Li  Li5  1  0.66666700  0.33333300  0.50054700  1
  V  V6  1  0.00000000  0.00000000  0.35050900  1
  V  V7  1  0.00000000  0.00000000  0.14684400  1
  V  V8  1  0.00000000  0.00000000  0.64684400  1
  V  V9  1  0.00000000  0.00000000  0.85050900  1
  F  F10  1  0.01851100  0.67205200  0.58351700  1
  F  F11  1  0.32794800  0.98148900  0.08351700  1
  F  F12  1  0.01851100  0.34645800  0.08351700  1
  F  F13  1  0.32794800  0.34645800  0.58351700  1
  F  F14  1  0.27201800  0.29234900  0.24669400  1
  F  F15  1  0.65354200  0.98148900  0.58351700  1
  F  F16  1  0.32349900  0.31456000  0.92085300  1
  F  F17  1  0.65354200  0.67205200  0.08351700  1
  F  F18  1  0.27201800  0.97966900  0.74669400  1
  F  F19  1  0.32349900  0.00893900  0.42085300  1
  F  F20  1  0.70765100  0.72798200  0.74669400  1
  F  F21  1  0.68544000  0.67650100  0.42085300  1
  F  F22  1  0.99106100  0.67650100  0.92085300  1
  F  F23  1  0.02033100  0.72798200  0.24669400  1
  F  F24  1  0.68544000  0.00893900  0.92085300  1
  F  F25  1  0.70765100  0.97966900  0.24669400  1
  F  F26  1  0.99106100  0.31456000  0.42085300  1
  F  F27  1  0.02033100  0.29234900  0.74669400  1
