# generated using pymatgen
data_Li2FeCO4
_symmetry_space_group_name_H-M   'P 1'
_cell_length_a   5.02248400
_cell_length_b   7.01202600
_cell_length_c   11.00293159
_cell_angle_alpha   81.49243305
_cell_angle_beta   90.00000000
_cell_angle_gamma   90.00000000
_symmetry_Int_Tables_number   1
_chemical_formula_structural   Li2FeCO4
_chemical_formula_sum   'Li8 Fe4 C4 O16'
_cell_volume   383.23500758
_cell_formula_units_Z   4
loop_
 _symmetry_equiv_pos_site_id
 _symmetry_equiv_pos_as_xyz
  1  'x, y, z'
loop_
 _atom_site_type_symbol
 _atom_site_label
 _atom_site_symmetry_multiplicity
 _atom_site_fract_x
 _atom_site_fract_y
 _atom_site_fract_z
 _atom_site_occupancy
  Li  Li0  1  0.65576400  0.88498600  0.78842900  1
  Li  Li1  1  0.84423600  0.88498600  0.28842900  1
  Li  Li2  1  0.82304900  0.78567900  0.56925400  1
  Li  Li3  1  0.67695100  0.78567900  0.06925400  1
  Li  Li4  1  0.32304900  0.21432100  0.93074600  1
  Li  Li5  1  0.17695100  0.21432100  0.43074600  1
  Li  Li6  1  0.15576400  0.11501400  0.71157100  1
  Li  Li7  1  0.34423600  0.11501400  0.21157100  1
  Fe  Fe8  1  0.85853100  0.48652900  0.83434600  1
  Fe  Fe9  1  0.35853100  0.51347100  0.66565400  1
  Fe  Fe10  1  0.64146900  0.48652900  0.33434600  1
  Fe  Fe11  1  0.14146900  0.51347100  0.16565400  1
  C  C12  1  0.17741200  0.80932900  0.93702800  1
  C  C13  1  0.32258800  0.80932900  0.43702800  1
  C  C14  1  0.67741200  0.19067100  0.56297200  1
  C  C15  1  0.82258800  0.19067100  0.06297200  1
  O  O16  1  0.29920300  0.94231000  0.86259600  1
  O  O17  1  0.20079700  0.94231000  0.36259600  1
  O  O18  1  0.92281600  0.77746200  0.92500400  1
  O  O19  1  0.57718400  0.77746200  0.42500400  1
  O  O20  1  0.18770900  0.70811700  0.52484700  1
  O  O21  1  0.65873300  0.65475100  0.71413400  1
  O  O22  1  0.31229100  0.70811700  0.02484700  1
  O  O23  1  0.84126700  0.65475100  0.21413400  1
  O  O24  1  0.15873300  0.34524900  0.78586600  1
  O  O25  1  0.68770900  0.29188300  0.97515300  1
  O  O26  1  0.34126700  0.34524900  0.28586600  1
  O  O27  1  0.81229100  0.29188300  0.47515300  1
  O  O28  1  0.42281600  0.22253800  0.57499600  1
  O  O29  1  0.07718400  0.22253800  0.07499600  1
  O  O30  1  0.79920300  0.05769000  0.63740400  1
  O  O31  1  0.70079700  0.05769000  0.13740400  1
