# generated using pymatgen
data_Li7MnO5F
_symmetry_space_group_name_H-M   'P 1'
_cell_length_a   5.50971364
_cell_length_b   9.83315909
_cell_length_c   9.99307871
_cell_angle_alpha   100.11129543
_cell_angle_beta   89.30327530
_cell_angle_gamma   73.20307869
_symmetry_Int_Tables_number   1
_chemical_formula_structural   Li7MnO5F
_chemical_formula_sum   'Li28 Mn4 O20 F4'
_cell_volume   509.11751524
_cell_formula_units_Z   4
loop_
 _symmetry_equiv_pos_site_id
 _symmetry_equiv_pos_as_xyz
  1  'x, y, z'
loop_
 _atom_site_type_symbol
 _atom_site_label
 _atom_site_symmetry_multiplicity
 _atom_site_fract_x
 _atom_site_fract_y
 _atom_site_fract_z
 _atom_site_occupancy
  Li  Li0  1  0.50258500  0.37090700  0.01057800  1
  Li  Li1  1  0.75232100  0.87106900  0.26054800  1
  Li  Li2  1  0.00256000  0.37090000  0.51057300  1
  Li  Li3  1  0.25228800  0.87107100  0.76053500  1
  Li  Li4  1  0.59075700  0.05528200  0.85697400  1
  Li  Li5  1  0.84071200  0.55537500  0.10717300  1
  Li  Li6  1  0.09071500  0.05525600  0.35697600  1
  Li  Li7  1  0.34071000  0.55536400  0.60723200  1
  Li  Li8  1  0.72572400  0.24698800  0.77393000  1
  Li  Li9  1  0.97591300  0.74698800  0.02403900  1
  Li  Li10  1  0.22575900  0.24705100  0.27390000  1
  Li  Li11  1  0.47587300  0.74699500  0.52402100  1
  Li  Li12  1  0.10036000  0.23007700  0.97777200  1
  Li  Li13  1  0.35019500  0.73007300  0.22753600  1
  Li  Li14  1  0.60039700  0.23002700  0.47783700  1
  Li  Li15  1  0.85007400  0.73005700  0.72747300  1
  Li  Li16  1  0.13347900  0.46819800  0.90477900  1
  Li  Li17  1  0.38332800  0.96802000  0.15436200  1
  Li  Li18  1  0.63340000  0.46820800  0.40478900  1
  Li  Li19  1  0.88327800  0.96805700  0.65435800  1
  Li  Li20  1  0.22486100  0.11621500  0.72304300  1
  Li  Li21  1  0.47483500  0.61619100  0.97310700  1
  Li  Li22  1  0.72488400  0.11621000  0.22303700  1
  Li  Li23  1  0.97482800  0.61618100  0.47309600  1
  Li  Li24  1  0.32561000  0.34680000  0.69354900  1
  Li  Li25  1  0.57595900  0.84664500  0.94322200  1
  Li  Li26  1  0.82559700  0.34681800  0.19353000  1
  Li  Li27  1  0.07590100  0.84662900  0.44325800  1
  Mn  Mn28  1  0.26733600  0.48547800  0.24960800  1
  Mn  Mn29  1  0.51737500  0.98529800  0.49917100  1
  Mn  Mn30  1  0.76727000  0.48531000  0.74956000  1
  Mn  Mn31  1  0.01719900  0.98524600  0.99918600  1
  O  O32  1  0.27346900  0.03144500  0.89678700  1
  O  O33  1  0.52298800  0.53152700  0.14639900  1
  O  O34  1  0.77349600  0.03144400  0.39674300  1
  O  O35  1  0.02294300  0.53128700  0.64648300  1
  O  O36  1  0.56039200  0.11830900  0.66560700  1
  O  O37  1  0.81105200  0.61813300  0.91601100  1
  O  O38  1  0.06041400  0.11830400  0.16559700  1
  O  O39  1  0.31105800  0.61822000  0.41591800  1
  O  O40  1  0.01460300  0.32138700  0.78364200  1
  O  O41  1  0.26508100  0.82098300  0.03274400  1
  O  O42  1  0.51470300  0.32165500  0.28363700  1
  O  O43  1  0.76506400  0.82091800  0.53275100  1
  O  O44  1  0.15828700  0.39790900  0.08183600  1
  O  O45  1  0.40736200  0.89794700  0.33164500  1
  O  O46  1  0.65811400  0.39772600  0.58192100  1
  O  O47  1  0.90726600  0.89798200  0.83163000  1
  O  O48  1  0.48792900  0.44426000  0.84058400  1
  O  O49  1  0.73839800  0.94417200  0.09030000  1
  O  O50  1  0.98802000  0.44430400  0.34052800  1
  O  O51  1  0.23841800  0.94421500  0.59026300  1
  F  F52  1  0.75220000  0.18837600  0.95816500  1
  F  F53  1  0.00123400  0.68927500  0.20803000  1
  F  F54  1  0.25210800  0.18839000  0.45815800  1
  F  F55  1  0.50126300  0.68922600  0.70802400  1
