# generated using pymatgen
data_LiMn2O3F
_symmetry_space_group_name_H-M   'P 1'
_cell_length_a   8.00405228
_cell_length_b   8.00405228
_cell_length_c   6.02308040
_cell_angle_alpha   68.21541099
_cell_angle_beta   68.21541099
_cell_angle_gamma   63.91531451
_symmetry_Int_Tables_number   1
_chemical_formula_structural   LiMn2O3F
_chemical_formula_sum   'Li4 Mn8 O12 F4'
_cell_volume   311.65259680
_cell_formula_units_Z   4
loop_
 _symmetry_equiv_pos_site_id
 _symmetry_equiv_pos_as_xyz
  1  'x, y, z'
loop_
 _atom_site_type_symbol
 _atom_site_label
 _atom_site_symmetry_multiplicity
 _atom_site_fract_x
 _atom_site_fract_y
 _atom_site_fract_z
 _atom_site_occupancy
  Li  Li0  1  0.01368100  0.24378100  0.10069800  1
  Li  Li1  1  0.73681400  0.00540600  0.39031000  1
  Li  Li2  1  0.24378100  0.01368100  0.60069800  1
  Li  Li3  1  0.00540600  0.73681400  0.89031000  1
  Mn  Mn4  1  0.76445500  0.22295800  0.76344400  1
  Mn  Mn5  1  0.01003700  0.49044200  0.51269200  1
  Mn  Mn6  1  0.49044200  0.01003700  0.01269200  1
  Mn  Mn7  1  0.37801600  0.37644400  0.13659300  1
  Mn  Mn8  1  0.61778800  0.63790000  0.36856000  1
  Mn  Mn9  1  0.37644400  0.37801600  0.63659300  1
  Mn  Mn10  1  0.63790000  0.61778800  0.86856000  1
  Mn  Mn11  1  0.22295800  0.76445500  0.26344400  1
  O  O12  1  0.60875000  0.13749000  0.67379000  1
  O  O13  1  0.61136600  0.15902600  0.11256800  1
  O  O14  1  0.87507700  0.36548600  0.83133600  1
  O  O15  1  0.52126900  0.49891600  0.70954100  1
  O  O16  1  0.75862900  0.70870300  0.52195000  1
  O  O17  1  0.27723700  0.25445500  0.01442500  1
  O  O18  1  0.70870300  0.75862900  0.02195000  1
  O  O19  1  0.25445500  0.27723700  0.51442500  1
  O  O20  1  0.49891600  0.52126900  0.20954100  1
  O  O21  1  0.13749000  0.60875000  0.17379000  1
  O  O22  1  0.36548600  0.87507700  0.33133600  1
  O  O23  1  0.15902600  0.61136600  0.61256800  1
  F  F24  1  0.98996300  0.00182900  0.24046100  1
  F  F25  1  0.86814900  0.36593700  0.37362800  1
  F  F26  1  0.36593700  0.86814900  0.87362800  1
  F  F27  1  0.00182900  0.98996300  0.74046100  1
