# generated using pymatgen
data_K3LiTi7O16
_symmetry_space_group_name_H-M   'P 1'
_cell_length_a   7.10690700
_cell_length_b   7.14073126
_cell_length_c   8.20745247
_cell_angle_alpha   97.23879263
_cell_angle_beta   97.13814303
_cell_angle_gamma   114.98768187
_symmetry_Int_Tables_number   1
_chemical_formula_structural   K3LiTi7O16
_chemical_formula_sum   'K3 Li1 Ti7 O16'
_cell_volume   367.15168269
_cell_formula_units_Z   1
loop_
 _symmetry_equiv_pos_site_id
 _symmetry_equiv_pos_as_xyz
  1  'x, y, z'
loop_
 _atom_site_type_symbol
 _atom_site_label
 _atom_site_symmetry_multiplicity
 _atom_site_fract_x
 _atom_site_fract_y
 _atom_site_fract_z
 _atom_site_occupancy
  K  K0  1  0.73020000  0.26687000  0.03608100  1
  K  K1  1  0.43952700  0.56419000  0.00690700  1
  K  K2  1  0.16169500  0.87594800  0.03191600  1
  Li  Li3  1  0.53076500  0.15603100  0.37378600  1
  Ti  Ti4  1  0.76897800  0.90998500  0.35782800  1
  Ti  Ti5  1  0.71675300  0.58983900  0.62722200  1
  Ti  Ti6  1  0.96343200  0.34292100  0.62830200  1
  Ti  Ti7  1  0.47251400  0.84917900  0.62626800  1
  Ti  Ti8  1  0.03345700  0.65770700  0.38175100  1
  Ti  Ti9  1  0.28553600  0.39369500  0.35817200  1
  Ti  Ti10  1  0.22413700  0.09592800  0.62698000  1
  O  O11  1  0.86633600  0.73332600  0.23375300  1
  O  O12  1  0.95852600  0.83050400  0.57921300  1
  O  O13  1  0.61512700  0.96076100  0.20622600  1
  O  O14  1  0.80731800  0.43024400  0.44607600  1
  O  O15  1  0.54604300  0.67110500  0.43388500  1
  O  O16  1  0.29046900  0.91744200  0.44504800  1
  O  O17  1  0.87020500  0.49545600  0.77538300  1
  O  O18  1  0.62705000  0.75249100  0.76775900  1
  O  O19  1  0.44606100  0.33741500  0.56637100  1
  O  O20  1  0.12571900  0.50819500  0.23365400  1
  O  O21  1  0.71298700  0.07077100  0.56719900  1
  O  O22  1  0.36278200  0.26653400  0.20621400  1
  O  O23  1  0.20548300  0.58410600  0.57865900  1
  O  O24  1  0.39129500  0.01688100  0.77359600  1
  O  O25  1  0.04465000  0.16945100  0.42834900  1
  O  O26  1  0.13122700  0.25630000  0.76649600  1
