# generated using pymatgen
data_Li2VOF4
_symmetry_space_group_name_H-M   'P 1'
_cell_length_a   5.44814000
_cell_length_b   7.20342100
_cell_length_c   9.60725500
_cell_angle_alpha   90.00000000
_cell_angle_beta   90.00000000
_cell_angle_gamma   90.00000000
_symmetry_Int_Tables_number   1
_chemical_formula_structural   Li2VOF4
_chemical_formula_sum   'Li8 V4 O4 F16'
_cell_volume   377.03908669
_cell_formula_units_Z   4
loop_
 _symmetry_equiv_pos_site_id
 _symmetry_equiv_pos_as_xyz
  1  'x, y, z'
loop_
 _atom_site_type_symbol
 _atom_site_label
 _atom_site_symmetry_multiplicity
 _atom_site_fract_x
 _atom_site_fract_y
 _atom_site_fract_z
 _atom_site_occupancy
  Li  Li0  1  0.49948500  0.70146900  0.28037900  1
  Li  Li1  1  0.03418700  0.87480300  0.42822400  1
  Li  Li2  1  0.46581300  0.12519700  0.92822400  1
  Li  Li3  1  0.00051500  0.29853100  0.78037900  1
  Li  Li4  1  0.50051500  0.20146900  0.21962100  1
  Li  Li5  1  0.96581300  0.37480300  0.07177600  1
  Li  Li6  1  0.53418700  0.62519700  0.57177600  1
  Li  Li7  1  0.99948500  0.79853100  0.71962100  1
  V  V8  1  0.97283200  0.94835300  0.05234000  1
  V  V9  1  0.52716800  0.05164700  0.55234000  1
  V  V10  1  0.02716800  0.44835300  0.44766000  1
  V  V11  1  0.47283200  0.55164700  0.94766000  1
  O  O12  1  0.75336400  0.89987800  0.57888300  1
  O  O13  1  0.74663600  0.10012200  0.07888300  1
  O  O14  1  0.24663600  0.39987800  0.92111700  1
  O  O15  1  0.25336400  0.60012200  0.42111700  1
  F  F16  1  0.27282700  0.76582500  0.00217700  1
  F  F17  1  0.77282700  0.73417500  0.99782300  1
  F  F18  1  0.00620400  0.85194500  0.23546200  1
  F  F19  1  0.24945500  0.88965900  0.58931000  1
  F  F20  1  0.48573800  0.98870500  0.35185000  1
  F  F21  1  0.01426200  0.01129500  0.85185000  1
  F  F22  1  0.25054500  0.11034100  0.08931000  1
  F  F23  1  0.49379600  0.14805500  0.73546200  1
  F  F24  1  0.22717300  0.23417500  0.50217700  1
  F  F25  1  0.72717300  0.26582500  0.49782300  1
  F  F26  1  0.99379600  0.35194500  0.26453800  1
  F  F27  1  0.75054500  0.38965900  0.91069000  1
  F  F28  1  0.51426200  0.48870500  0.14815000  1
  F  F29  1  0.98573800  0.51129500  0.64815000  1
  F  F30  1  0.74945500  0.61034100  0.41069000  1
  F  F31  1  0.50620400  0.64805500  0.76453800  1
