# generated using pymatgen
data_Li6Mn3V(PO4)6
_symmetry_space_group_name_H-M   'P 1'
_cell_length_a   8.74419140
_cell_length_b   8.53878191
_cell_length_c   8.48053670
_cell_angle_alpha   61.85463097
_cell_angle_beta   62.29474934
_cell_angle_gamma   61.29993632
_symmetry_Int_Tables_number   1
_chemical_formula_structural   Li6Mn3V(PO4)6
_chemical_formula_sum   'Li6 Mn3 V1 P6 O24'
_cell_volume   465.88655450
_cell_formula_units_Z   1
loop_
 _symmetry_equiv_pos_site_id
 _symmetry_equiv_pos_as_xyz
  1  'x, y, z'
loop_
 _atom_site_type_symbol
 _atom_site_label
 _atom_site_symmetry_multiplicity
 _atom_site_fract_x
 _atom_site_fract_y
 _atom_site_fract_z
 _atom_site_occupancy
  Li  Li0  1  0.02461200  0.01674900  0.98172300  1
  Li  Li1  1  0.74863800  0.16220200  0.34431500  1
  Li  Li2  1  0.47841000  0.50707300  0.49379600  1
  Li  Li3  1  0.26272100  0.83473600  0.65528600  1
  Li  Li4  1  0.64452300  0.27872700  0.84316900  1
  Li  Li5  1  0.85885100  0.65796900  0.26171900  1
  Mn  Mn6  1  0.14121700  0.14126800  0.14465900  1
  Mn  Mn7  1  0.35630900  0.35644900  0.35936400  1
  Mn  Mn8  1  0.64867800  0.65267500  0.64343900  1
  V  V9  1  0.85541700  0.85377800  0.85498200  1
  P  P10  1  0.05595200  0.75009100  0.44178300  1
  P  P11  1  0.44819500  0.05024000  0.75199900  1
  P  P12  1  0.74910700  0.45478300  0.04339400  1
  P  P13  1  0.24762300  0.53330500  0.96259800  1
  P  P14  1  0.54687900  0.96168000  0.25471200  1
  P  P15  1  0.95001200  0.24845800  0.54056700  1
  O  O16  1  0.12392900  0.27880400  0.49666500  1
  O  O17  1  0.31202300  0.49819900  0.12001800  1
  O  O18  1  0.06814500  0.91925500  0.25318900  1
  O  O19  1  0.53987100  0.12183800  0.29861400  1
  O  O20  1  0.24104700  0.58569400  0.43268800  1
  O  O21  1  0.01765300  0.80733700  0.60757900  1
  O  O22  1  0.26137700  0.07314400  0.90562900  1
  O  O23  1  0.44767400  0.23539500  0.57855800  1
  O  O24  1  0.60173500  0.44336400  0.23732600  1
  O  O25  1  0.17629200  0.37939000  0.00902200  1
  O  O26  1  0.09437900  0.73319500  0.93599200  1
  O  O27  1  0.37615900  0.00474600  0.21618800  1
  O  O28  1  0.60787100  0.01285700  0.81020000  1
  O  O29  1  0.89717700  0.25672400  0.06109100  1
  O  O30  1  0.81979600  0.61136300  0.99419000  1
  O  O31  1  0.40370700  0.54427700  0.77029100  1
  O  O32  1  0.56486200  0.76779500  0.42114100  1
  O  O33  1  0.73355500  0.92300400  0.09708000  1
  O  O34  1  0.95417100  0.19666600  0.38650300  1
  O  O35  1  0.76830400  0.42321000  0.55890800  1
  O  O36  1  0.47579900  0.88593500  0.69676200  1
  O  O37  1  0.91758200  0.09539000  0.74073800  1
  O  O38  1  0.67967800  0.49183400  0.88503900  1
  O  O39  1  0.90007300  0.69940100  0.46007900  1
