# generated using pymatgen
data_Li3Mn(BO3)2
_symmetry_space_group_name_H-M   'P 1'
_cell_length_a   8.05764700
_cell_length_b   5.88133400
_cell_length_c   11.08034608
_cell_angle_alpha   62.87290649
_cell_angle_beta   90.00000000
_cell_angle_gamma   90.00000000
_symmetry_Int_Tables_number   1
_chemical_formula_structural   Li3Mn(BO3)2
_chemical_formula_sum   'Li12 Mn4 B8 O24'
_cell_volume   467.33261475
_cell_formula_units_Z   4
loop_
 _symmetry_equiv_pos_site_id
 _symmetry_equiv_pos_as_xyz
  1  'x, y, z'
loop_
 _atom_site_type_symbol
 _atom_site_label
 _atom_site_symmetry_multiplicity
 _atom_site_fract_x
 _atom_site_fract_y
 _atom_site_fract_z
 _atom_site_occupancy
  Li  Li0  1  0.72462300  0.61645500  0.89910600  1
  Li  Li1  1  0.78198600  0.05551000  0.41058600  1
  Li  Li2  1  0.56137300  0.73600600  0.63039500  1
  Li  Li3  1  0.06137300  0.26399400  0.86960500  1
  Li  Li4  1  0.22462300  0.38354500  0.60089400  1
  Li  Li5  1  0.71801400  0.05551000  0.91058600  1
  Li  Li6  1  0.28198600  0.94449000  0.08941400  1
  Li  Li7  1  0.77537700  0.61645500  0.39910600  1
  Li  Li8  1  0.93862700  0.73600600  0.13039500  1
  Li  Li9  1  0.43862700  0.26399400  0.36960500  1
  Li  Li10  1  0.21801400  0.94449000  0.58941400  1
  Li  Li11  1  0.27537700  0.38354500  0.10089400  1
  Mn  Mn12  1  0.61096200  0.08754600  0.15309500  1
  Mn  Mn13  1  0.11096200  0.91245400  0.34690500  1
  Mn  Mn14  1  0.88903800  0.08754600  0.65309500  1
  Mn  Mn15  1  0.38903800  0.91245400  0.84690500  1
  B  B16  1  0.88726400  0.61517700  0.63873400  1
  B  B17  1  0.93965700  0.18828900  0.10795300  1
  B  B18  1  0.38726400  0.38482300  0.86126600  1
  B  B19  1  0.43965700  0.81171100  0.39204700  1
  B  B20  1  0.56034300  0.18828900  0.60795300  1
  B  B21  1  0.61273600  0.61517700  0.13873400  1
  B  B22  1  0.06034300  0.81171100  0.89204700  1
  B  B23  1  0.11273600  0.38482300  0.36126600  1
  O  O24  1  0.79259100  0.74113300  0.69692300  1
  O  O25  1  0.41588400  0.64401300  0.78288100  1
  O  O26  1  0.94196500  0.75050300  0.50872600  1
  O  O27  1  0.79524300  0.25445700  0.02773800  1
  O  O28  1  0.91443200  0.09666500  0.24671400  1
  O  O29  1  0.44196500  0.24949700  0.99127400  1
  O  O30  1  0.09141300  0.18731900  0.05625100  1
  O  O31  1  0.59141300  0.81268100  0.44374900  1
  O  O32  1  0.41443200  0.90333500  0.25328600  1
  O  O33  1  0.29524300  0.74554300  0.47226200  1
  O  O34  1  0.91588400  0.35598700  0.71711900  1
  O  O35  1  0.29259100  0.25886700  0.80307700  1
  O  O36  1  0.70740900  0.74113300  0.19692300  1
  O  O37  1  0.08411600  0.64401300  0.28288100  1
  O  O38  1  0.70475700  0.25445700  0.52773800  1
  O  O39  1  0.58556800  0.09666500  0.74671400  1
  O  O40  1  0.40858700  0.18731900  0.55625100  1
  O  O41  1  0.90858700  0.81268100  0.94374900  1
  O  O42  1  0.55803500  0.75050300  0.00872600  1
  O  O43  1  0.08556800  0.90333500  0.75328600  1
  O  O44  1  0.20475700  0.74554300  0.97226200  1
  O  O45  1  0.05803500  0.24949700  0.49127400  1
  O  O46  1  0.58411600  0.35598700  0.21711900  1
  O  O47  1  0.20740900  0.25886700  0.30307700  1
