# generated using pymatgen
data_LiCuH4Cl3O2
_symmetry_space_group_name_H-M   'P 1'
_cell_length_a   11.22982600
_cell_length_b   6.19088800
_cell_length_c   9.31361319
_cell_angle_alpha   72.39218543
_cell_angle_beta   90.00000000
_cell_angle_gamma   90.00000000
_symmetry_Int_Tables_number   1
_chemical_formula_structural   LiCuH4Cl3O2
_chemical_formula_sum   'Li4 Cu4 H16 Cl12 O8'
_cell_volume   617.17049953
_cell_formula_units_Z   4
loop_
 _symmetry_equiv_pos_site_id
 _symmetry_equiv_pos_as_xyz
  1  'x, y, z'
loop_
 _atom_site_type_symbol
 _atom_site_label
 _atom_site_symmetry_multiplicity
 _atom_site_fract_x
 _atom_site_fract_y
 _atom_site_fract_z
 _atom_site_occupancy
  Li  Li0  1  0.51656700  0.56001200  0.83698600  1
  Li  Li1  1  0.01656700  0.43998800  0.66301400  1
  Li  Li2  1  0.48343300  0.43998800  0.16301400  1
  Li  Li3  1  0.98343300  0.56001200  0.33698600  1
  Cu  Cu4  1  0.50912900  0.16842000  0.61599900  1
  Cu  Cu5  1  0.00912900  0.83158000  0.88400100  1
  Cu  Cu6  1  0.49087100  0.83158000  0.38400100  1
  Cu  Cu7  1  0.99087100  0.16842000  0.11599900  1
  H  H8  1  0.64729400  0.88703300  0.88459700  1
  H  H9  1  0.14729400  0.11296700  0.61540300  1
  H  H10  1  0.35270600  0.11296700  0.11540300  1
  H  H11  1  0.85270600  0.88703300  0.38459700  1
  H  H12  1  0.70082500  0.79617600  0.76042800  1
  H  H13  1  0.20082500  0.20382400  0.73957200  1
  H  H14  1  0.29917500  0.20382400  0.23957200  1
  H  H15  1  0.79917500  0.79617600  0.26042800  1
  H  H16  1  0.81131500  0.39087900  0.55075200  1
  H  H17  1  0.31131500  0.60912100  0.94924800  1
  H  H18  1  0.18868500  0.60912100  0.44924800  1
  H  H19  1  0.68868500  0.39087900  0.05075200  1
  H  H20  1  0.89330200  0.19383200  0.53679700  1
  H  H21  1  0.39330200  0.80616800  0.96320300  1
  H  H22  1  0.10669800  0.80616800  0.46320300  1
  H  H23  1  0.60669800  0.19383200  0.03679700  1
  Cl  Cl24  1  0.63167000  0.45592900  0.62183100  1
  Cl  Cl25  1  0.13167000  0.54407100  0.87816900  1
  Cl  Cl26  1  0.36833000  0.54407100  0.37816900  1
  Cl  Cl27  1  0.86833000  0.45592900  0.12183100  1
  Cl  Cl28  1  0.89862400  0.79519000  0.68194600  1
  Cl  Cl29  1  0.39862400  0.20481000  0.81805400  1
  Cl  Cl30  1  0.10137600  0.20481000  0.31805400  1
  Cl  Cl31  1  0.60137600  0.79519000  0.18194600  1
  Cl  Cl32  1  0.88471000  0.10891900  0.91609200  1
  Cl  Cl33  1  0.38471000  0.89108100  0.58390800  1
  Cl  Cl34  1  0.11529000  0.89108100  0.08390800  1
  Cl  Cl35  1  0.61529000  0.10891900  0.41609200  1
  O  O36  1  0.62525700  0.83003900  0.80184700  1
  O  O37  1  0.12525700  0.16996100  0.69815300  1
  O  O38  1  0.37474300  0.16996100  0.19815300  1
  O  O39  1  0.87474300  0.83003900  0.30184700  1
  O  O40  1  0.89329700  0.35822300  0.52367100  1
  O  O41  1  0.39329700  0.64177700  0.97632900  1
  O  O42  1  0.10670300  0.64177700  0.47632900  1
  O  O43  1  0.60670300  0.35822300  0.02367100  1
