# generated using pymatgen
data_Li3Cr(PO4)2
_symmetry_space_group_name_H-M   'P 1'
_cell_length_a   8.42142238
_cell_length_b   8.42142238
_cell_length_c   8.42142199
_cell_angle_alpha   63.67410162
_cell_angle_beta   63.67410162
_cell_angle_gamma   63.67410584
_symmetry_Int_Tables_number   1
_chemical_formula_structural   Li3Cr(PO4)2
_chemical_formula_sum   'Li9 Cr3 P6 O24'
_cell_volume   456.58376469
_cell_formula_units_Z   3
loop_
 _symmetry_equiv_pos_site_id
 _symmetry_equiv_pos_as_xyz
  1  'x, y, z'
loop_
 _atom_site_type_symbol
 _atom_site_label
 _atom_site_symmetry_multiplicity
 _atom_site_fract_x
 _atom_site_fract_y
 _atom_site_fract_z
 _atom_site_occupancy
  Li  Li0  1  0.85030500  0.24354200  0.65329500  1
  Li  Li1  1  0.80492200  0.32616500  0.14244600  1
  Li  Li2  1  0.32616500  0.14244600  0.80492200  1
  Li  Li3  1  0.15230700  0.15230700  0.15230700  1
  Li  Li4  1  0.00947800  0.00947800  0.00947800  1
  Li  Li5  1  0.49759500  0.49759500  0.49759500  1
  Li  Li6  1  0.65329500  0.85030500  0.24354200  1
  Li  Li7  1  0.24354200  0.65329500  0.85030500  1
  Li  Li8  1  0.14244600  0.80492200  0.32616500  1
  Cr  Cr9  1  0.35664700  0.35664700  0.35664700  1
  Cr  Cr10  1  0.85724500  0.85724500  0.85724500  1
  Cr  Cr11  1  0.64183700  0.64183700  0.64183700  1
  P  P12  1  0.74530500  0.04611500  0.45365400  1
  P  P13  1  0.94991200  0.54816100  0.24656700  1
  P  P14  1  0.54816100  0.24656700  0.94991200  1
  P  P15  1  0.45365400  0.74530500  0.04611500  1
  P  P16  1  0.04611500  0.45365400  0.74530500  1
  P  P17  1  0.24656700  0.94991200  0.54816100  1
  O  O18  1  0.90299600  0.05147800  0.26798400  1
  O  O19  1  0.74451600  0.09149900  0.93266100  1
  O  O20  1  0.88930000  0.49527600  0.67176600  1
  O  O21  1  0.01892200  0.61735800  0.80315900  1
  O  O22  1  0.59336900  0.24238900  0.43005200  1
  O  O23  1  0.39197900  0.18883200  0.97194100  1
  O  O24  1  0.30372200  0.11456400  0.51577000  1
  O  O25  1  0.75420500  0.57898800  0.40177600  1
  O  O26  1  0.93266100  0.74451600  0.09149900  1
  O  O27  1  0.18883200  0.97194100  0.39197900  1
  O  O28  1  0.51577000  0.30372200  0.11456400  1
  O  O29  1  0.57898800  0.40177600  0.75420500  1
  O  O30  1  0.43005200  0.59336900  0.24238900  1
  O  O31  1  0.49527600  0.67176600  0.88930000  1
  O  O32  1  0.80315900  0.01892200  0.61735800  1
  O  O33  1  0.24238900  0.43005200  0.59336900  1
  O  O34  1  0.05147800  0.26798400  0.90299600  1
  O  O35  1  0.61735800  0.80315900  0.01892200  1
  O  O36  1  0.67176600  0.88930000  0.49527600  1
  O  O37  1  0.40177600  0.75420500  0.57898800  1
  O  O38  1  0.97194100  0.39197900  0.18883200  1
  O  O39  1  0.11456400  0.51577000  0.30372200  1
  O  O40  1  0.26798400  0.90299600  0.05147800  1
  O  O41  1  0.09149900  0.93266100  0.74451600  1
