# generated using pymatgen
data_Li2VFe3O8
_symmetry_space_group_name_H-M   'P 1'
_cell_length_a   5.87934476
_cell_length_b   5.87934476
_cell_length_c   9.42631400
_cell_angle_alpha   90.00000000
_cell_angle_beta   90.00000000
_cell_angle_gamma   119.35929081
_symmetry_Int_Tables_number   1
_chemical_formula_structural   Li2VFe3O8
_chemical_formula_sum   'Li4 V2 Fe6 O16'
_cell_volume   283.98685347
_cell_formula_units_Z   2
loop_
 _symmetry_equiv_pos_site_id
 _symmetry_equiv_pos_as_xyz
  1  'x, y, z'
loop_
 _atom_site_type_symbol
 _atom_site_label
 _atom_site_symmetry_multiplicity
 _atom_site_fract_x
 _atom_site_fract_y
 _atom_site_fract_z
 _atom_site_occupancy
  Li  Li0  1  0.66656200  0.33343800  0.89913700  1
  Li  Li1  1  0.99980900  0.00019100  0.99106300  1
  Li  Li2  1  0.00019100  0.99980900  0.49106300  1
  Li  Li3  1  0.33343800  0.66656200  0.39913700  1
  V  V4  1  0.66629500  0.33370500  0.49689900  1
  V  V5  1  0.33370500  0.66629500  0.99689900  1
  Fe  Fe6  1  0.34519100  0.16964700  0.21821800  1
  Fe  Fe7  1  0.82582600  0.17417400  0.21422600  1
  Fe  Fe8  1  0.83035300  0.65480900  0.21821800  1
  Fe  Fe9  1  0.16964700  0.34519100  0.71821800  1
  Fe  Fe10  1  0.17417400  0.82582600  0.71422600  1
  Fe  Fe11  1  0.65480900  0.83035300  0.71821800  1
  O  O12  1  0.35104000  0.16690600  0.59007700  1
  O  O13  1  0.52998800  0.04126400  0.34473500  1
  O  O14  1  0.66740700  0.33259300  0.10530000  1
  O  O15  1  0.99601300  0.00398700  0.29998500  1
  O  O16  1  0.00398700  0.99601300  0.79998500  1
  O  O17  1  0.82686300  0.17313700  0.58927400  1
  O  O18  1  0.52231600  0.47768400  0.35210300  1
  O  O19  1  0.95873600  0.47001200  0.34473500  1
  O  O20  1  0.16690600  0.35104000  0.09007700  1
  O  O21  1  0.83309400  0.64896000  0.59007700  1
  O  O22  1  0.04126400  0.52998800  0.84473500  1
  O  O23  1  0.47768400  0.52231600  0.85210300  1
  O  O24  1  0.33259300  0.66740700  0.60530000  1
  O  O25  1  0.17313700  0.82686300  0.08927400  1
  O  O26  1  0.47001200  0.95873600  0.84473500  1
  O  O27  1  0.64896000  0.83309400  0.09007700  1
