# generated using pymatgen
data_Li3Cr2P2(O4F)2
_symmetry_space_group_name_H-M   'P 1'
_cell_length_a   5.29273619
_cell_length_b   10.54439534
_cell_length_c   7.55967498
_cell_angle_alpha   73.17905220
_cell_angle_beta   74.14615818
_cell_angle_gamma   97.47402359
_symmetry_Int_Tables_number   1
_chemical_formula_structural   Li3Cr2P2(O4F)2
_chemical_formula_sum   'Li6 Cr4 P4 O16 F4'
_cell_volume   378.33061875
_cell_formula_units_Z   2
loop_
 _symmetry_equiv_pos_site_id
 _symmetry_equiv_pos_as_xyz
  1  'x, y, z'
loop_
 _atom_site_type_symbol
 _atom_site_label
 _atom_site_symmetry_multiplicity
 _atom_site_fract_x
 _atom_site_fract_y
 _atom_site_fract_z
 _atom_site_occupancy
  Li  Li0  1  0.50002200  0.50011800  0.49990300  1
  Li  Li1  1  0.49994300  0.00013300  0.49990900  1
  Li  Li2  1  0.24056800  0.29224200  0.85201900  1
  Li  Li3  1  0.24073000  0.79233800  0.85201800  1
  Li  Li4  1  0.75938600  0.20773200  0.14801400  1
  Li  Li5  1  0.75949700  0.70777000  0.14803400  1
  Cr  Cr6  1  0.99992600  0.49988500  0.50018500  1
  Cr  Cr7  1  0.00005500  0.99998900  0.99979900  1
  Cr  Cr8  1  0.00021600  0.50001900  0.99984700  1
  Cr  Cr9  1  0.99985800  0.99992800  0.50004400  1
  P  P10  1  0.32343900  0.31746900  0.23939000  1
  P  P11  1  0.32345100  0.81742800  0.23956400  1
  P  P12  1  0.67644600  0.18251500  0.76042700  1
  P  P13  1  0.67661600  0.68256700  0.76067900  1
  O  O14  1  0.12737100  0.32458900  0.11641200  1
  O  O15  1  0.12707300  0.82472900  0.11688000  1
  O  O16  1  0.87289900  0.17525600  0.88297300  1
  O  O17  1  0.87277200  0.67548000  0.88354600  1
  O  O18  1  0.25307800  0.39768100  0.38185900  1
  O  O19  1  0.25339600  0.89764400  0.38205400  1
  O  O20  1  0.74645500  0.10227100  0.61801300  1
  O  O21  1  0.74691200  0.60231400  0.61824600  1
  O  O22  1  0.30757300  0.16504000  0.35386900  1
  O  O23  1  0.30709400  0.66484300  0.35371300  1
  O  O24  1  0.69280700  0.33509000  0.64626900  1
  O  O25  1  0.69246600  0.83498200  0.64616600  1
  O  O26  1  0.61757600  0.37165000  0.10201500  1
  O  O27  1  0.61754100  0.87156700  0.10208900  1
  O  O28  1  0.38242100  0.12841300  0.89795600  1
  O  O29  1  0.38245800  0.62839700  0.89798700  1
  F  F30  1  0.16684300  0.45664800  0.70472200  1
  F  F31  1  0.16641900  0.95713600  0.70519700  1
  F  F32  1  0.83356400  0.04287100  0.29481000  1
  F  F33  1  0.83312900  0.54326800  0.29538500  1
