# generated using pymatgen
data_LiVPO4
_symmetry_space_group_name_H-M   'P 1'
_cell_length_a   5.77235548
_cell_length_b   5.77234437
_cell_length_c   9.97839004
_cell_angle_alpha   73.01991835
_cell_angle_beta   73.01974653
_cell_angle_gamma   60.41477783
_symmetry_Int_Tables_number   1
_chemical_formula_structural   LiVPO4
_chemical_formula_sum   'Li4 V4 P4 O16'
_cell_volume   272.12311779
_cell_formula_units_Z   4
loop_
 _symmetry_equiv_pos_site_id
 _symmetry_equiv_pos_as_xyz
  1  'x, y, z'
loop_
 _atom_site_type_symbol
 _atom_site_label
 _atom_site_symmetry_multiplicity
 _atom_site_fract_x
 _atom_site_fract_y
 _atom_site_fract_z
 _atom_site_occupancy
  Li  Li0  1  0.25009400  0.74988100  0.75002800  1
  Li  Li1  1  0.75009200  0.24988400  0.25002800  1
  Li  Li2  1  0.00012700  0.49991500  0.00004900  1
  Li  Li3  1  0.49997600  0.00004600  0.50002800  1
  V  V4  1  0.50009400  0.50018700  0.49990800  1
  V  V5  1  0.50003200  0.50016900  0.99995300  1
  V  V6  1  0.99982700  0.00006400  0.99990800  1
  V  V7  1  0.99985900  0.99977700  0.50014600  1
  P  P8  1  0.56498000  0.06516300  0.81507400  1
  P  P9  1  0.06512000  0.56500900  0.31504500  1
  P  P10  1  0.43484700  0.93502400  0.18489700  1
  P  P11  1  0.93498200  0.43487100  0.68486800  1
  O  O12  1  0.60298000  0.10309000  0.13203800  1
  O  O13  1  0.10314600  0.60284300  0.63209400  1
  O  O14  1  0.61785800  0.11811100  0.64701400  1
  O  O15  1  0.11801500  0.61803800  0.14695300  1
  O  O16  1  0.38194800  0.88218200  0.35296300  1
  O  O17  1  0.88208400  0.38212700  0.85290400  1
  O  O18  1  0.39694400  0.89704000  0.86795600  1
  O  O19  1  0.89709400  0.39681300  0.36800900  1
  O  O20  1  0.39630800  0.34040300  0.86838200  1
  O  O21  1  0.89626500  0.84023000  0.36838800  1
  O  O22  1  0.84027500  0.89619400  0.86828800  1
  O  O23  1  0.34034900  0.39630300  0.36835800  1
  O  O24  1  0.60378500  0.65967500  0.13171100  1
  O  O25  1  0.10373800  0.15951100  0.63171300  1
  O  O26  1  0.15955900  0.10367000  0.13161500  1
  O  O27  1  0.65962200  0.60378100  0.63168600  1
