# generated using pymatgen
data_Li4Mn2Cr3Sb3O16
_symmetry_space_group_name_H-M   'P 1'
_cell_length_a   6.11290591
_cell_length_b   6.11290591
_cell_length_c   10.01914797
_cell_angle_alpha   89.90885349
_cell_angle_beta   89.90885349
_cell_angle_gamma   60.37333208
_symmetry_Int_Tables_number   1
_chemical_formula_structural   Li4Mn2Cr3Sb3O16
_chemical_formula_sum   'Li4 Mn2 Cr3 Sb3 O16'
_cell_volume   325.44502558
_cell_formula_units_Z   1
loop_
 _symmetry_equiv_pos_site_id
 _symmetry_equiv_pos_as_xyz
  1  'x, y, z'
loop_
 _atom_site_type_symbol
 _atom_site_label
 _atom_site_symmetry_multiplicity
 _atom_site_fract_x
 _atom_site_fract_y
 _atom_site_fract_z
 _atom_site_occupancy
  Li  Li0  1  0.32843700  0.32843700  0.09920200  1
  Li  Li1  1  0.99202100  0.99202100  0.99418800  1
  Li  Li2  1  0.99071100  0.99071100  0.50934700  1
  Li  Li3  1  0.66309100  0.66309100  0.63101700  1
  Mn  Mn4  1  0.34596400  0.34596400  0.52035100  1
  Mn  Mn5  1  0.67388300  0.67388300  0.98330700  1
  Cr  Cr6  1  0.66385700  0.16883800  0.78508400  1
  Cr  Cr7  1  0.16883800  0.66385700  0.78508400  1
  Cr  Cr8  1  0.83252000  0.83252000  0.28338400  1
  Sb  Sb9  1  0.16933100  0.16933100  0.78437800  1
  Sb  Sb10  1  0.83281300  0.33739700  0.28349800  1
  Sb  Sb11  1  0.33739700  0.83281300  0.28349800  1
  O  O12  1  0.69474100  0.15996500  0.39120100  1
  O  O13  1  0.48398200  0.48398200  0.67289400  1
  O  O14  1  0.33181700  0.33181700  0.89396400  1
  O  O15  1  0.00135500  0.00135500  0.68681200  1
  O  O16  1  0.00067400  0.00067400  0.18013500  1
  O  O17  1  0.15996500  0.69474100  0.39120100  1
  O  O18  1  0.47978700  0.03024200  0.66946600  1
  O  O19  1  0.03024200  0.47978700  0.66946600  1
  O  O20  1  0.84579500  0.84579500  0.89199700  1
  O  O21  1  0.15467200  0.15467200  0.39476800  1
  O  O22  1  0.96843800  0.51071400  0.17390100  1
  O  O23  1  0.51071400  0.96843800  0.17390100  1
  O  O24  1  0.66663100  0.66663100  0.39425400  1
  O  O25  1  0.85266000  0.30783100  0.89665800  1
  O  O26  1  0.51207900  0.51207900  0.17254900  1
  O  O27  1  0.30783100  0.85266000  0.89665800  1
