# generated using pymatgen
data_Li2MnOF3
_symmetry_space_group_name_H-M   'P 1'
_cell_length_a   5.02475994
_cell_length_b   5.76794237
_cell_length_c   10.27410330
_cell_angle_alpha   90.00296052
_cell_angle_beta   89.97229916
_cell_angle_gamma   89.96517806
_symmetry_Int_Tables_number   1
_chemical_formula_structural   Li2MnOF3
_chemical_formula_sum   'Li8 Mn4 O4 F12'
_cell_volume   297.76937365
_cell_formula_units_Z   4
loop_
 _symmetry_equiv_pos_site_id
 _symmetry_equiv_pos_as_xyz
  1  'x, y, z'
loop_
 _atom_site_type_symbol
 _atom_site_label
 _atom_site_symmetry_multiplicity
 _atom_site_fract_x
 _atom_site_fract_y
 _atom_site_fract_z
 _atom_site_occupancy
  Li  Li0  1  0.99091100  0.24873800  0.27150700  1
  Li  Li1  1  0.99090700  0.74899700  0.27159100  1
  Li  Li2  1  0.50871200  0.25122600  0.77169600  1
  Li  Li3  1  0.50867800  0.75100700  0.77164800  1
  Li  Li4  1  0.50344000  0.24932900  0.20761400  1
  Li  Li5  1  0.50343400  0.74944800  0.20762800  1
  Li  Li6  1  0.99641800  0.25069600  0.70781800  1
  Li  Li7  1  0.99636300  0.75059200  0.70763000  1
  Mn  Mn8  1  0.52342400  0.50063300  0.50570200  1
  Mn  Mn9  1  0.97656100  0.99921500  0.00541000  1
  Mn  Mn10  1  0.52341000  0.00084100  0.50576300  1
  Mn  Mn11  1  0.97692200  0.49926200  0.00562100  1
  O  O12  1  0.70457300  0.25075600  0.58237900  1
  O  O13  1  0.70459100  0.75072700  0.58238900  1
  O  O14  1  0.79568900  0.24928100  0.08209900  1
  O  O15  1  0.79562400  0.74931100  0.08213900  1
  F  F16  1  0.72966800  0.99948600  0.32058700  1
  F  F17  1  0.72965400  0.49948600  0.32051900  1
  F  F18  1  0.77021900  0.50058100  0.82070900  1
  F  F19  1  0.77017300  0.00043100  0.82053900  1
  F  F20  1  0.23823500  0.49911900  0.18584500  1
  F  F21  1  0.23826800  0.99913400  0.18578100  1
  F  F22  1  0.26168800  0.00088400  0.68594100  1
  F  F23  1  0.26170000  0.50088100  0.68587500  1
  F  F24  1  0.20258400  0.24928700  0.92620800  1
  F  F25  1  0.20257900  0.74926000  0.92621500  1
  F  F26  1  0.29776800  0.25067300  0.42658500  1
  F  F27  1  0.29780700  0.75071800  0.42657000  1
