# generated using pymatgen
data_LiMnF4
_symmetry_space_group_name_H-M   'P 1'
_cell_length_a   7.61026900
_cell_length_b   7.64543100
_cell_length_c   10.06422700
_cell_angle_alpha   90.00000000
_cell_angle_beta   90.00000000
_cell_angle_gamma   90.00000000
_symmetry_Int_Tables_number   1
_chemical_formula_structural   LiMnF4
_chemical_formula_sum   'Li8 Mn8 F32'
_cell_volume   585.57483537
_cell_formula_units_Z   8
loop_
 _symmetry_equiv_pos_site_id
 _symmetry_equiv_pos_as_xyz
  1  'x, y, z'
loop_
 _atom_site_type_symbol
 _atom_site_label
 _atom_site_symmetry_multiplicity
 _atom_site_fract_x
 _atom_site_fract_y
 _atom_site_fract_z
 _atom_site_occupancy
  Li  Li0  1  0.75228100  0.00000000  0.77147600  1
  Li  Li1  1  0.19032200  0.00000000  0.78857200  1
  Li  Li2  1  0.99023500  0.00000000  0.26964500  1
  Li  Li3  1  0.47603700  0.00000000  0.29414200  1
  Li  Li4  1  0.97603700  0.50000000  0.70585800  1
  Li  Li5  1  0.69032200  0.50000000  0.21142800  1
  Li  Li6  1  0.49023500  0.50000000  0.73035500  1
  Li  Li7  1  0.25228100  0.50000000  0.22852400  1
  Mn  Mn8  1  0.50324600  0.75333600  0.00583900  1
  Mn  Mn9  1  0.25520900  0.75165100  0.50620000  1
  Mn  Mn10  1  0.75520900  0.74834900  0.49380000  1
  Mn  Mn11  1  0.00324600  0.74666400  0.99416100  1
  Mn  Mn12  1  0.00324600  0.25333600  0.99416100  1
  Mn  Mn13  1  0.75520900  0.25165100  0.49380000  1
  Mn  Mn14  1  0.25520900  0.24834900  0.50620000  1
  Mn  Mn15  1  0.50324600  0.24666400  0.00583900  1
  F  F16  1  0.78654000  0.00000000  0.57528000  1
  F  F17  1  0.21901800  0.00000000  0.59298900  1
  F  F18  1  0.96948000  0.00000000  0.07318800  1
  F  F19  1  0.52493800  0.00000000  0.09739200  1
  F  F20  1  0.55965600  0.83581800  0.84297900  1
  F  F21  1  0.80245200  0.82787800  0.32622400  1
  F  F22  1  0.20797000  0.83808100  0.34090400  1
  F  F23  1  0.96248200  0.83250900  0.82464300  1
  F  F24  1  0.50406700  0.81400500  0.46270900  1
  F  F25  1  0.25321600  0.81184200  0.96233900  1
  F  F26  1  0.75321600  0.68815800  0.03766100  1
  F  F27  1  0.00406700  0.68599500  0.53729100  1
  F  F28  1  0.46248200  0.66749100  0.17535700  1
  F  F29  1  0.70797000  0.66191900  0.65909600  1
  F  F30  1  0.30245200  0.67212200  0.67377600  1
  F  F31  1  0.05965600  0.66418200  0.15702100  1
  F  F32  1  0.71901800  0.50000000  0.40701100  1
  F  F33  1  0.46948000  0.50000000  0.92681200  1
  F  F34  1  0.02493800  0.50000000  0.90260800  1
  F  F35  1  0.28654000  0.50000000  0.42472000  1
  F  F36  1  0.05965600  0.33581800  0.15702100  1
  F  F37  1  0.30245200  0.32787800  0.67377600  1
  F  F38  1  0.70797000  0.33808100  0.65909600  1
  F  F39  1  0.46248200  0.33250900  0.17535700  1
  F  F40  1  0.00406700  0.31400500  0.53729100  1
  F  F41  1  0.75321600  0.31184200  0.03766100  1
  F  F42  1  0.25321600  0.18815800  0.96233900  1
  F  F43  1  0.50406700  0.18599500  0.46270900  1
  F  F44  1  0.96248200  0.16749100  0.82464300  1
  F  F45  1  0.20797000  0.16191900  0.34090400  1
  F  F46  1  0.80245200  0.17212200  0.32622400  1
  F  F47  1  0.55965600  0.16418200  0.84297900  1
