# generated using pymatgen
data_Li4Ti2V3Cr4O18
_symmetry_space_group_name_H-M   'P 1'
_cell_length_a   2.97694500
_cell_length_b   8.96260900
_cell_length_c   24.98488600
_cell_angle_alpha   90.00000000
_cell_angle_beta   90.00000000
_cell_angle_gamma   90.00000000
_symmetry_Int_Tables_number   1
_chemical_formula_structural   Li4Ti2V3Cr4O18
_chemical_formula_sum   'Li8 Ti4 V6 Cr8 O36'
_cell_volume   666.62659167
_cell_formula_units_Z   2
loop_
 _symmetry_equiv_pos_site_id
 _symmetry_equiv_pos_as_xyz
  1  'x, y, z'
loop_
 _atom_site_type_symbol
 _atom_site_label
 _atom_site_symmetry_multiplicity
 _atom_site_fract_x
 _atom_site_fract_y
 _atom_site_fract_z
 _atom_site_occupancy
  Li  Li0  1  0.00000000  0.18779100  0.49381000  1
  Li  Li1  1  0.00000000  0.20803800  0.69003900  1
  Li  Li2  1  0.00000000  0.29196200  0.19003900  1
  Li  Li3  1  0.00000000  0.31220900  0.99381000  1
  Li  Li4  1  0.00000000  0.68779100  0.00619000  1
  Li  Li5  1  0.00000000  0.70803800  0.80996100  1
  Li  Li6  1  0.00000000  0.79196200  0.30996100  1
  Li  Li7  1  0.00000000  0.81220900  0.50619000  1
  Ti  Ti8  1  0.00000000  0.99316100  0.60258600  1
  Ti  Ti9  1  0.00000000  0.50683900  0.10258600  1
  Ti  Ti10  1  0.00000000  0.49316100  0.89741400  1
  Ti  Ti11  1  0.00000000  0.00683900  0.39741400  1
  V  V12  1  0.00000000  0.00000000  0.00000000  1
  V  V13  1  0.50000000  0.14536600  0.30255000  1
  V  V14  1  0.50000000  0.35463400  0.80255000  1
  V  V15  1  0.00000000  0.50000000  0.50000000  1
  V  V16  1  0.50000000  0.64536600  0.19745000  1
  V  V17  1  0.50000000  0.85463400  0.69745000  1
  Cr  Cr18  1  0.00000000  0.01908200  0.81062100  1
  Cr  Cr19  1  0.50000000  0.14837100  0.08628200  1
  Cr  Cr20  1  0.50000000  0.35162900  0.58628200  1
  Cr  Cr21  1  0.00000000  0.48091800  0.31062100  1
  Cr  Cr22  1  0.00000000  0.51908200  0.68937900  1
  Cr  Cr23  1  0.50000000  0.64837100  0.41371800  1
  Cr  Cr24  1  0.50000000  0.85162900  0.91371800  1
  Cr  Cr25  1  0.00000000  0.98091800  0.18937900  1
  O  O26  1  0.00000000  0.99953600  0.92418400  1
  O  O27  1  0.00000000  0.00046400  0.07581600  1
  O  O28  1  0.50000000  0.06078600  0.44176000  1
  O  O29  1  0.50000000  0.04583100  0.65975100  1
  O  O30  1  0.50000000  0.11326700  0.16464400  1
  O  O31  1  0.00000000  0.09083300  0.25624400  1
  O  O32  1  0.50000000  0.15043900  0.00467800  1
  O  O33  1  0.50000000  0.15247800  0.78482600  1
  O  O34  1  0.00000000  0.18773100  0.35368100  1
  O  O35  1  0.00000000  0.20187200  0.58567000  1
  O  O36  1  0.00000000  0.29812800  0.08567000  1
  O  O37  1  0.00000000  0.31226900  0.85368100  1
  O  O38  1  0.50000000  0.34752200  0.28482600  1
  O  O39  1  0.50000000  0.34956100  0.50467800  1
  O  O40  1  0.00000000  0.40916700  0.75624400  1
  O  O41  1  0.50000000  0.38673300  0.66464400  1
  O  O42  1  0.50000000  0.45416900  0.15975100  1
  O  O43  1  0.50000000  0.43921400  0.94176000  1
  O  O44  1  0.00000000  0.49953600  0.57581600  1
  O  O45  1  0.00000000  0.50046400  0.42418400  1
  O  O46  1  0.50000000  0.56078600  0.05824000  1
  O  O47  1  0.50000000  0.54583100  0.84024900  1
  O  O48  1  0.50000000  0.61326700  0.33535600  1
  O  O49  1  0.00000000  0.59083300  0.24375600  1
  O  O50  1  0.50000000  0.65043900  0.49532200  1
  O  O51  1  0.50000000  0.65247800  0.71517400  1
  O  O52  1  0.00000000  0.68773100  0.14631900  1
  O  O53  1  0.00000000  0.70187200  0.91433000  1
  O  O54  1  0.00000000  0.79812800  0.41433000  1
  O  O55  1  0.00000000  0.81226900  0.64631900  1
  O  O56  1  0.50000000  0.84752200  0.21517400  1
  O  O57  1  0.50000000  0.84956100  0.99532200  1
  O  O58  1  0.00000000  0.90916700  0.74375600  1
  O  O59  1  0.50000000  0.88673300  0.83535600  1
  O  O60  1  0.50000000  0.95416900  0.34024900  1
  O  O61  1  0.50000000  0.93921400  0.55824000  1
