# generated using pymatgen
data_Li13Mn3(SbO8)2
_symmetry_space_group_name_H-M   'P 1'
_cell_length_a   6.01904235
_cell_length_b   6.01904235
_cell_length_c   10.01915823
_cell_angle_alpha   88.95273186
_cell_angle_beta   88.95273186
_cell_angle_gamma   60.77619234
_symmetry_Int_Tables_number   1
_chemical_formula_structural   Li13Mn3(SbO8)2
_chemical_formula_sum   'Li13 Mn3 Sb2 O16'
_cell_volume   316.71096541
_cell_formula_units_Z   1
loop_
 _symmetry_equiv_pos_site_id
 _symmetry_equiv_pos_as_xyz
  1  'x, y, z'
loop_
 _atom_site_type_symbol
 _atom_site_label
 _atom_site_symmetry_multiplicity
 _atom_site_fract_x
 _atom_site_fract_y
 _atom_site_fract_z
 _atom_site_occupancy
  Li  Li0  1  0.65732600  0.26253700  0.77547800  1
  Li  Li1  1  0.58647100  0.18041400  0.01585600  1
  Li  Li2  1  0.26253700  0.65732600  0.77547800  1
  Li  Li3  1  0.88670000  0.88670000  0.50760400  1
  Li  Li4  1  0.18041400  0.58647100  0.01585600  1
  Li  Li5  1  0.99544500  0.99544500  0.98941000  1
  Li  Li6  1  0.33233800  0.33233800  0.24633700  1
  Li  Li7  1  0.82784300  0.82784300  0.74332000  1
  Li  Li8  1  0.83061700  0.83061700  0.26460200  1
  Li  Li9  1  0.18275100  0.18275100  0.05243600  1
  Li  Li10  1  0.67704300  0.67704300  0.56837400  1
  Li  Li11  1  0.88122300  0.28169700  0.55169700  1
  Li  Li12  1  0.28169700  0.88122300  0.55169700  1
  Mn  Mn13  1  0.83273100  0.33765800  0.28256800  1
  Mn  Mn14  1  0.33765800  0.83273100  0.28256800  1
  Mn  Mn15  1  0.17680600  0.17680600  0.78392100  1
  Sb  Sb16  1  0.35012900  0.35012900  0.51920600  1
  Sb  Sb17  1  0.65967100  0.65967100  0.01777000  1
  O  O18  1  0.67100900  0.18434800  0.40163800  1
  O  O19  1  0.50582500  0.50582500  0.62932000  1
  O  O20  1  0.18434800  0.67100900  0.40163800  1
  O  O21  1  0.50329300  0.02675500  0.63466200  1
  O  O22  1  0.32630600  0.32630600  0.88510300  1
  O  O23  1  0.83004300  0.83004300  0.93046100  1
  O  O24  1  0.02675500  0.50329300  0.63466200  1
  O  O25  1  0.18630000  0.18630000  0.41103700  1
  O  O26  1  0.96669300  0.49934700  0.14926000  1
  O  O27  1  0.01425700  0.01425700  0.68349300  1
  O  O28  1  0.83899300  0.33329700  0.91483400  1
  O  O29  1  0.01755300  0.01755300  0.18600600  1
  O  O30  1  0.65847500  0.65847500  0.37611000  1
  O  O31  1  0.49934700  0.96669300  0.14926000  1
  O  O32  1  0.33329700  0.83899300  0.91483400  1
  O  O33  1  0.49611200  0.49611200  0.13259600  1
