# generated using pymatgen
data_Li2MnSiO4
_symmetry_space_group_name_H-M   'P 1'
_cell_length_a   5.07201300
_cell_length_b   6.32404900
_cell_length_c   10.97156900
_cell_angle_alpha   90.00000000
_cell_angle_beta   90.00000000
_cell_angle_gamma   90.00000000
_symmetry_Int_Tables_number   1
_chemical_formula_structural   Li2MnSiO4
_chemical_formula_sum   'Li8 Mn4 Si4 O16'
_cell_volume   351.92030309
_cell_formula_units_Z   4
loop_
 _symmetry_equiv_pos_site_id
 _symmetry_equiv_pos_as_xyz
  1  'x, y, z'
loop_
 _atom_site_type_symbol
 _atom_site_label
 _atom_site_symmetry_multiplicity
 _atom_site_fract_x
 _atom_site_fract_y
 _atom_site_fract_z
 _atom_site_occupancy
  Li  Li0  1  0.75849800  0.00210100  0.17362100  1
  Li  Li1  1  0.75953400  0.25583100  0.90775900  1
  Li  Li2  1  0.75953400  0.24416900  0.40775900  1
  Li  Li3  1  0.75849800  0.49789900  0.67362100  1
  Li  Li4  1  0.25849800  0.50210100  0.32637900  1
  Li  Li5  1  0.25953400  0.75583100  0.59224100  1
  Li  Li6  1  0.25953400  0.74416900  0.09224100  1
  Li  Li7  1  0.25849800  0.99789900  0.82637900  1
  Mn  Mn8  1  0.25658600  0.24671100  0.58249400  1
  Mn  Mn9  1  0.25658600  0.25328900  0.08249400  1
  Mn  Mn10  1  0.75658600  0.74671100  0.91750600  1
  Mn  Mn11  1  0.75658600  0.75328900  0.41750600  1
  Si  Si12  1  0.26424800  0.00199700  0.33191600  1
  Si  Si13  1  0.26424800  0.49800300  0.83191600  1
  Si  Si14  1  0.76424800  0.50199700  0.16808400  1
  Si  Si15  1  0.76424800  0.99800300  0.66808400  1
  O  O16  1  0.08898700  0.99115500  0.66917000  1
  O  O17  1  0.15324700  0.99547400  0.18968600  1
  O  O18  1  0.15275200  0.28103800  0.90040500  1
  O  O19  1  0.66931700  0.21424000  0.59291000  1
  O  O20  1  0.66931700  0.28576000  0.09291000  1
  O  O21  1  0.15275200  0.21896200  0.40040500  1
  O  O22  1  0.15324700  0.50452600  0.68968600  1
  O  O23  1  0.08898700  0.50884500  0.16917000  1
  O  O24  1  0.58898700  0.49115500  0.83083000  1
  O  O25  1  0.65324700  0.49547400  0.31031400  1
  O  O26  1  0.65275200  0.78103800  0.59959500  1
  O  O27  1  0.16931700  0.71424000  0.90709000  1
  O  O28  1  0.16931700  0.78576000  0.40709000  1
  O  O29  1  0.65275200  0.71896200  0.09959500  1
  O  O30  1  0.65324700  0.00452600  0.81031400  1
  O  O31  1  0.58898700  0.00884500  0.33083000  1
