# generated using pymatgen
data_Li2VP3O10
_symmetry_space_group_name_H-M   'P 1'
_cell_length_a   8.01799822
_cell_length_b   8.01799822
_cell_length_c   9.71503301
_cell_angle_alpha   57.47247002
_cell_angle_beta   57.47247002
_cell_angle_gamma   53.19706593
_symmetry_Int_Tables_number   1
_chemical_formula_structural   Li2VP3O10
_chemical_formula_sum   'Li4 V2 P6 O20'
_cell_volume   399.56387585
_cell_formula_units_Z   2
loop_
 _symmetry_equiv_pos_site_id
 _symmetry_equiv_pos_as_xyz
  1  'x, y, z'
loop_
 _atom_site_type_symbol
 _atom_site_label
 _atom_site_symmetry_multiplicity
 _atom_site_fract_x
 _atom_site_fract_y
 _atom_site_fract_z
 _atom_site_occupancy
  Li  Li0  1  0.71547700  0.74421900  0.96267600  1
  Li  Li1  1  0.74421900  0.71547700  0.46267600  1
  Li  Li2  1  0.25578100  0.28452300  0.53732400  1
  Li  Li3  1  0.28452300  0.25578100  0.03732400  1
  V  V4  1  0.33412400  0.66587600  0.75000000  1
  V  V5  1  0.66587600  0.33412400  0.25000000  1
  P  P6  1  0.80267800  0.44050500  0.81403100  1
  P  P7  1  0.44050500  0.80267800  0.31403100  1
  P  P8  1  0.95086300  0.04913700  0.75000000  1
  P  P9  1  0.04913700  0.95086300  0.25000000  1
  P  P10  1  0.55949500  0.19732200  0.68596900  1
  P  P11  1  0.19732200  0.55949500  0.18596900  1
  O  O12  1  0.97322300  0.81467800  0.84667500  1
  O  O13  1  0.81467800  0.97322300  0.34667500  1
  O  O14  1  0.55209800  0.98349200  0.81097000  1
  O  O15  1  0.72302200  0.46989100  0.98478400  1
  O  O16  1  0.62506800  0.60585900  0.72090000  1
  O  O17  1  0.98349200  0.55209800  0.31097000  1
  O  O18  1  0.82134300  0.19194500  0.87364400  1
  O  O19  1  0.46989100  0.72302200  0.48478400  1
  O  O20  1  0.60585900  0.62506800  0.22090000  1
  O  O21  1  0.80805500  0.17865700  0.62635600  1
  O  O22  1  0.19194500  0.82134300  0.37364400  1
  O  O23  1  0.39414100  0.37493200  0.77910000  1
  O  O24  1  0.53010900  0.27697800  0.51521600  1
  O  O25  1  0.17865700  0.80805500  0.12635600  1
  O  O26  1  0.01650800  0.44790200  0.68903000  1
  O  O27  1  0.37493200  0.39414100  0.27910000  1
  O  O28  1  0.27697800  0.53010900  0.01521600  1
  O  O29  1  0.44790200  0.01650800  0.18903000  1
  O  O30  1  0.18532200  0.02677700  0.65332500  1
  O  O31  1  0.02677700  0.18532200  0.15332500  1
