# generated using pymatgen
data_Li9Ti12NbO30
_symmetry_space_group_name_H-M   'P 1'
_cell_length_a   5.13677632
_cell_length_b   23.82055880
_cell_length_c   5.13690094
_cell_angle_alpha   96.20108364
_cell_angle_beta   59.97957540
_cell_angle_gamma   96.21907897
_symmetry_Int_Tables_number   1
_chemical_formula_structural   Li9Ti12NbO30
_chemical_formula_sum   'Li9 Ti12 Nb1 O30'
_cell_volume   539.97170139
_cell_formula_units_Z   1
loop_
 _symmetry_equiv_pos_site_id
 _symmetry_equiv_pos_as_xyz
  1  'x, y, z'
loop_
 _atom_site_type_symbol
 _atom_site_label
 _atom_site_symmetry_multiplicity
 _atom_site_fract_x
 _atom_site_fract_y
 _atom_site_fract_z
 _atom_site_occupancy
  Li  Li0  1  0.02568907  0.07695309  0.02563496  1
  Li  Li1  1  0.24469563  0.73701075  0.24629735  1
  Li  Li2  1  0.60854685  0.82544172  0.60803459  1
  Li  Li3  1  0.38996924  0.17013071  0.39017646  1
  Li  Li4  1  0.47355709  0.42078232  0.47360571  1
  Li  Li5  1  0.52655303  0.58009316  0.52707663  1
  Li  Li6  1  0.97381869  0.92179531  0.97394159  1
  Li  Li7  1  0.89109428  0.67042804  0.88974770  1
  Li  Li8  1  0.74552824  0.23654588  0.74550297  1
  Ti  Ti9  1  0.10409785  0.31272745  0.10472615  1
  Ti  Ti10  1  0.16197664  0.48614427  0.16200616  1
  Ti  Ti11  1  0.20431708  0.61232502  0.20435370  1
  Ti  Ti12  1  0.06567666  0.19650739  0.06538836  1
  Ti  Ti13  1  0.29588210  0.88772985  0.29553374  1
  Ti  Ti14  1  0.66200447  0.98610297  0.66192472  1
  Ti  Ti15  1  0.33812822  0.01421951  0.33806792  1
  Ti  Ti16  1  0.43229781  0.29762601  0.43249226  1
  Ti  Ti17  1  0.56645436  0.69948372  0.56628134  1
  Ti  Ti18  1  0.70381672  0.11149645  0.70397402  1
  Ti  Ti19  1  0.79636067  0.39036690  0.79691988  1
  Ti  Ti20  1  0.83817792  0.51454958  0.83836781  1
  Nb  Nb21  1  0.93176067  0.79647239  0.93210288  1
  O  O22  1  0.00546408  0.95285492  0.35074750  1
  O  O23  1  0.01056670  0.15245640  0.38366429  1
  O  O24  1  0.59689844  0.95292117  0.00522351  1
  O  O25  1  0.14961379  0.54817634  0.49469735  1
  O  O26  1  0.35064136  0.95290328  0.59636278  1
  O  O27  1  0.25341123  0.74943906  0.62604145  1
  O  O28  1  0.12572814  0.35126446  0.45908698  1
  O  O29  1  0.09576767  0.45136704  0.84955371  1
  O  O30  1  0.24437702  0.85116269  0.98467133  1
  O  O31  1  0.36707836  0.25454688  0.12429378  1
  O  O32  1  0.50876009  0.65071885  0.26255441  1
  O  O33  1  0.62116238  0.85120106  0.24450069  1
  O  O34  1  0.50628193  0.45138730  0.09573364  1
  O  O35  1  0.26348747  0.65062538  0.87998669  1
  O  O36  1  0.12425096  0.25461306  0.76328104  1
  O  O37  1  0.86929947  0.74980789  0.25541326  1
  O  O38  1  0.76665294  0.35118873  0.12569814  1
  O  O39  1  0.49512279  0.54805747  0.90327370  1
  O  O40  1  0.38355817  0.15241777  0.75834485  1
  O  O41  1  0.45892812  0.35115175  0.76654720  1
  O  O42  1  0.62392730  0.74970760  0.87089991  1
  O  O43  1  0.75806647  0.15241407  0.01080375  1
  O  O44  1  0.90400953  0.54811298  0.14993724  1
  O  O45  1  0.88168513  0.65107657  0.50655277  1
  O  O46  1  0.76330083  0.25462963  0.36706469  1
  O  O47  1  0.64975741  0.04966003  0.40402209  1
  O  O48  1  0.84958748  0.45135701  0.50614155  1
  O  O49  1  0.40394142  0.04959322  0.99575598  1
  O  O50  1  0.98581712  0.85096765  0.62068374  1
  O  O51  1  0.99583089  0.04963024  0.64968605  1
