# generated using pymatgen
data_Li3Mn4(BO3)4
_symmetry_space_group_name_H-M   'P 1'
_cell_length_a   9.09437900
_cell_length_b   9.10486240
_cell_length_c   11.64834280
_cell_angle_alpha   91.12395615
_cell_angle_beta   111.75918820
_cell_angle_gamma   119.91835788
_symmetry_Int_Tables_number   1
_chemical_formula_structural   Li3Mn4(BO3)4
_chemical_formula_sum   'Li9 Mn12 B12 O36'
_cell_volume   750.94528607
_cell_formula_units_Z   3
loop_
 _symmetry_equiv_pos_site_id
 _symmetry_equiv_pos_as_xyz
  1  'x, y, z'
loop_
 _atom_site_type_symbol
 _atom_site_label
 _atom_site_symmetry_multiplicity
 _atom_site_fract_x
 _atom_site_fract_y
 _atom_site_fract_z
 _atom_site_occupancy
  Li  Li0  1  0.75171400  0.97336300  0.66908500  1
  Li  Li1  1  0.05827200  0.09472000  0.17322800  1
  Li  Li2  1  0.35494000  0.74841300  0.14902000  1
  Li  Li3  1  0.32235400  0.58795100  0.91016000  1
  Li  Li4  1  0.00702400  0.43518700  0.41626600  1
  Li  Li5  1  0.70980700  0.43399300  0.15973300  1
  Li  Li6  1  0.99904800  0.91906700  0.91352600  1
  Li  Li7  1  0.33667000  0.07503800  0.41916200  1
  Li  Li8  1  0.42972800  0.29545400  0.67262900  1
  Mn  Mn9  1  0.69106800  0.77375300  0.13310400  1
  Mn  Mn10  1  0.32421500  0.41360500  0.38505800  1
  Mn  Mn11  1  0.65856600  0.93916900  0.88740800  1
  Mn  Mn12  1  0.01889400  0.40417300  0.12875500  1
  Mn  Mn13  1  0.05756700  0.30136500  0.63684100  1
  Mn  Mn14  1  0.33027600  0.87884100  0.62497800  1
  Mn  Mn15  1  0.65323900  0.05392600  0.38222700  1
  Mn  Mn16  1  0.94095900  0.73573600  0.38131600  1
  Mn  Mn17  1  0.93211700  0.54310800  0.88162000  1
  Mn  Mn18  1  0.37086300  0.08511800  0.13347500  1
  Mn  Mn19  1  0.72853700  0.61627700  0.62560400  1
  Mn  Mn20  1  0.32423800  0.23748900  0.88058200  1
  B  B21  1  0.35264100  0.41877400  0.11458300  1
  B  B22  1  0.38311300  0.61591900  0.62253400  1
  B  B23  1  0.97999300  0.07899800  0.37787800  1
  B  B24  1  0.27700100  0.72178700  0.36594300  1
  B  B25  1  0.69456200  0.09569700  0.12490000  1
  B  B26  1  0.00516000  0.75097500  0.11690500  1
  B  B27  1  0.99745200  0.24812300  0.87681400  1
  B  B28  1  0.28146700  0.87979400  0.86817500  1
  B  B29  1  0.05294700  0.96068000  0.64035100  1
  B  B30  1  0.63732300  0.38329300  0.37491400  1
  B  B31  1  0.68487000  0.24839400  0.63542000  1
  B  B32  1  0.64157500  0.59062100  0.87595200  1
  O  O33  1  0.84302200  0.90052400  0.33645700  1
  O  O34  1  0.41712400  0.58646700  0.10239700  1
  O  O35  1  0.22571700  0.33691800  0.16631300  1
  O  O36  1  0.54775200  0.99152900  0.15686000  1
  O  O37  1  0.44498900  0.51281600  0.59755600  1
  O  O38  1  0.14546000  0.14518300  0.36531100  1
  O  O39  1  0.41551700  0.81345900  0.32985500  1
  O  O40  1  0.58331400  0.68826400  0.91473100  1
  O  O41  1  0.50473800  0.80114400  0.65654100  1
  O  O42  1  0.17277000  0.53816100  0.33336700  1
  O  O43  1  0.78348000  0.02190400  0.09324100  1
  O  O44  1  0.04804300  0.63811300  0.07170100  1
  O  O45  1  0.20353900  0.54826100  0.60933000  1
  O  O46  1  0.94216100  0.18959600  0.42938500  1
  O  O47  1  0.22731600  0.80827200  0.43205700  1
  O  O48  1  0.14555300  0.33475800  0.84305700  1
  O  O49  1  0.75432400  0.26423800  0.12167900  1
  O  O50  1  0.09324300  0.92252800  0.10973600  1
  O  O51  1  0.40974600  0.93995700  0.81301900  1
  O  O52  1  0.90368000  0.07058700  0.86363700  1
  O  O53  1  0.87437200  0.68300800  0.16653000  1
  O  O54  1  0.19771700  0.71511700  0.88261700  1
  O  O55  1  0.77011400  0.17702800  0.59845300  1
  O  O56  1  0.79448400  0.46601700  0.35184900  1
  O  O57  1  0.09510200  0.86034700  0.58330800  1
  O  O58  1  0.94339300  0.34303400  0.92613200  1
  O  O59  1  0.24827300  0.00057000  0.91323800  1
  O  O60  1  0.79191000  0.42971900  0.69724700  1
  O  O61  1  0.51653600  0.19997300  0.33728300  1
  O  O62  1  0.41616400  0.32134900  0.07262800  1
  O  O63  1  0.59653300  0.48233300  0.43272900  1
  O  O64  1  0.88393300  0.88109300  0.64327600  1
  O  O65  1  0.49810900  0.14903200  0.60970800  1
  O  O66  1  0.80278800  0.67280100  0.85162700  1
  O  O67  1  0.54948900  0.41266500  0.85966500  1
  O  O68  1  0.18782700  0.14336600  0.68931400  1
