# generated using pymatgen
data_Li2FeSiO4
_symmetry_space_group_name_H-M   'P 1'
_cell_length_a   5.18325800
_cell_length_b   6.31091400
_cell_length_c   11.00513200
_cell_angle_alpha   90.00000000
_cell_angle_beta   90.00000000
_cell_angle_gamma   90.00000000
_symmetry_Int_Tables_number   1
_chemical_formula_structural   Li2FeSiO4
_chemical_formula_sum   'Li8 Fe4 Si4 O16'
_cell_volume   359.98992360
_cell_formula_units_Z   4
loop_
 _symmetry_equiv_pos_site_id
 _symmetry_equiv_pos_as_xyz
  1  'x, y, z'
loop_
 _atom_site_type_symbol
 _atom_site_label
 _atom_site_symmetry_multiplicity
 _atom_site_fract_x
 _atom_site_fract_y
 _atom_site_fract_z
 _atom_site_occupancy
  Li  Li0  1  0.69750300  0.95007900  0.58582000  1
  Li  Li1  1  0.31111200  0.70319600  0.67474500  1
  Li  Li2  1  0.81111200  0.20319600  0.82525500  1
  Li  Li3  1  0.19750300  0.45007900  0.91418000  1
  Li  Li4  1  0.80249700  0.95007900  0.08582000  1
  Li  Li5  1  0.18888800  0.70319600  0.17474500  1
  Li  Li6  1  0.68888800  0.20319600  0.32525500  1
  Li  Li7  1  0.30249700  0.45007900  0.41418000  1
  Fe  Fe8  1  0.81773800  0.46834000  0.58572800  1
  Fe  Fe9  1  0.68226200  0.46834000  0.08572800  1
  Fe  Fe10  1  0.31773800  0.96834000  0.91427200  1
  Fe  Fe11  1  0.18226200  0.96834000  0.41427200  1
  Si  Si12  1  0.32191000  0.21112500  0.66308100  1
  Si  Si13  1  0.82191000  0.71112500  0.83691900  1
  Si  Si14  1  0.17809000  0.21112500  0.16308100  1
  Si  Si15  1  0.67809000  0.71112500  0.33691900  1
  O  O16  1  0.25648200  0.98605300  0.59191300  1
  O  O17  1  0.21390100  0.42319500  0.58908500  1
  O  O18  1  0.64058800  0.22040400  0.66674000  1
  O  O19  1  0.70347700  0.70771400  0.69718700  1
  O  O20  1  0.20347700  0.20771400  0.80281300  1
  O  O21  1  0.14058800  0.72040400  0.83326000  1
  O  O22  1  0.71390100  0.92319500  0.91091500  1
  O  O23  1  0.75648200  0.48605300  0.90808700  1
  O  O24  1  0.24351800  0.98605300  0.09191300  1
  O  O25  1  0.28609900  0.42319500  0.08908500  1
  O  O26  1  0.85941200  0.22040400  0.16674000  1
  O  O27  1  0.79652300  0.70771400  0.19718700  1
  O  O28  1  0.29652300  0.20771400  0.30281300  1
  O  O29  1  0.35941200  0.72040400  0.33326000  1
  O  O30  1  0.78609900  0.92319500  0.41091500  1
  O  O31  1  0.74351800  0.48605300  0.40808700  1
