# generated using pymatgen
data_Li12Ni11O28
_symmetry_space_group_name_H-M   'P 1'
_cell_length_a   5.83023000
_cell_length_b   6.41274169
_cell_length_c   12.91358774
_cell_angle_alpha   84.19225643
_cell_angle_beta   83.76674610
_cell_angle_gamma   74.29272139
_symmetry_Int_Tables_number   1
_chemical_formula_structural   Li12Ni11O28
_chemical_formula_sum   'Li12 Ni11 O28'
_cell_volume   460.73079353
_cell_formula_units_Z   1
loop_
 _symmetry_equiv_pos_site_id
 _symmetry_equiv_pos_as_xyz
  1  'x, y, z'
loop_
 _atom_site_type_symbol
 _atom_site_label
 _atom_site_symmetry_multiplicity
 _atom_site_fract_x
 _atom_site_fract_y
 _atom_site_fract_z
 _atom_site_occupancy
  Li  Li0  1  0.36039700  0.64893400  0.92857600  1
  Li  Li1  1  0.21015400  0.29158100  0.85699400  1
  Li  Li2  1  0.56739900  0.92839800  0.79285400  1
  Li  Li3  1  0.93663700  0.56138000  0.71790700  1
  Li  Li4  1  0.78837200  0.21477300  0.64335300  1
  Li  Li5  1  0.64648000  0.86439500  0.57226800  1
  Li  Li6  1  0.99939600  0.48939100  0.50004900  1
  Li  Li7  1  0.36012900  0.15299900  0.42568800  1
  Li  Li8  1  0.57854800  0.43574900  0.28592000  1
  Li  Li9  1  0.42991000  0.07698500  0.21459900  1
  Li  Li10  1  0.78574200  0.70142700  0.14663900  1
  Li  Li11  1  0.14454800  0.36556100  0.06671600  1
  Ni  Ni12  1  0.99596900  0.99408200  0.99930500  1
  Ni  Ni13  1  0.70983500  0.28982100  0.85763100  1
  Ni  Ni14  1  0.06864000  0.92998700  0.78472800  1
  Ni  Ni15  1  0.43110900  0.56799600  0.71444900  1
  Ni  Ni16  1  0.14507500  0.86073700  0.57178500  1
  Ni  Ni17  1  0.50541700  0.49768000  0.50121300  1
  Ni  Ni18  1  0.85684700  0.14379000  0.42686200  1
  Ni  Ni19  1  0.21605800  0.78049000  0.35707200  1
  Ni  Ni20  1  0.92526800  0.07414100  0.21463200  1
  Ni  Ni21  1  0.28421200  0.71132500  0.14291900  1
  Ni  Ni22  1  0.63812200  0.35837700  0.07001100  1
  O  O23  1  0.90209600  0.29730200  0.96642400  1
  O  O24  1  0.45927500  0.32879900  0.96407800  1
  O  O25  1  0.81226600  0.98344100  0.88751400  1
  O  O26  1  0.23929500  0.96433100  0.89150700  1
  O  O27  1  0.63032900  0.58437400  0.81241400  1
  O  O28  1  0.16584200  0.62387100  0.80949400  1
  O  O29  1  0.97490900  0.23419200  0.76084700  1
  O  O30  1  0.51048700  0.27374400  0.75908700  1
  O  O31  1  0.89141200  0.89262600  0.67527000  1
  O  O32  1  0.33528100  0.87344500  0.68149900  1
  O  O33  1  0.68540100  0.53664600  0.60667900  1
  O  O34  1  0.24051200  0.55760700  0.60530600  1
  O  O35  1  0.59309000  0.19530400  0.52172000  1
  O  O36  1  0.96148600  0.83630100  0.46685300  1
  O  O37  1  0.06141300  0.15373100  0.52626400  1
  O  O38  1  0.40333400  0.80420800  0.46762500  1
  O  O39  1  0.77010500  0.44009000  0.40658400  1
  O  O40  1  0.30197300  0.48818700  0.40181100  1
  O  O41  1  0.67765800  0.11411500  0.31951700  1
  O  O42  1  0.11993300  0.08362800  0.32173900  1
  O  O43  1  0.45593800  0.75174300  0.24911400  1
  O  O44  1  0.02731600  0.76941400  0.24922100  1
  O  O45  1  0.84435500  0.36680900  0.16963500  1
  O  O46  1  0.37366300  0.40986900  0.16499500  1
  O  O47  1  0.74056200  0.04970400  0.10890700  1
  O  O48  1  0.18024400  0.01689500  0.10795300  1
  O  O49  1  0.55302600  0.65504400  0.05026100  1
  O  O50  1  0.08224800  0.70132000  0.04303500  1
