# generated using pymatgen
data_Li(CoO2)2
_symmetry_space_group_name_H-M   'P 1'
_cell_length_a   4.84895500
_cell_length_b   5.65150700
_cell_length_c   10.13498800
_cell_angle_alpha   90.00000000
_cell_angle_beta   90.00000000
_cell_angle_gamma   90.00000000
_symmetry_Int_Tables_number   1
_chemical_formula_structural   Li(CoO2)2
_chemical_formula_sum   'Li4 Co8 O16'
_cell_volume   277.73822933
_cell_formula_units_Z   4
loop_
 _symmetry_equiv_pos_site_id
 _symmetry_equiv_pos_as_xyz
  1  'x, y, z'
loop_
 _atom_site_type_symbol
 _atom_site_label
 _atom_site_symmetry_multiplicity
 _atom_site_fract_x
 _atom_site_fract_y
 _atom_site_fract_z
 _atom_site_occupancy
  Li  Li0  1  0.64347100  0.00000000  0.75000000  1
  Li  Li1  1  0.35652900  0.00000000  0.25000000  1
  Li  Li2  1  0.14347100  0.50000000  0.75000000  1
  Li  Li3  1  0.85652900  0.50000000  0.25000000  1
  Co  Co4  1  0.74556600  0.62623200  0.50546000  1
  Co  Co5  1  0.25443400  0.62623200  0.00546000  1
  Co  Co6  1  0.24556600  0.87376800  0.50546000  1
  Co  Co7  1  0.75443400  0.87376800  0.00546000  1
  Co  Co8  1  0.75443400  0.12623200  0.49454000  1
  Co  Co9  1  0.24556600  0.12623200  0.99454000  1
  Co  Co10  1  0.74556600  0.37376800  0.99454000  1
  Co  Co11  1  0.25443400  0.37376800  0.49454000  1
  O  O12  1  0.92496400  0.62689100  0.90576900  1
  O  O13  1  0.40993200  0.62049400  0.60059900  1
  O  O14  1  0.07503600  0.62689100  0.40576900  1
  O  O15  1  0.59006800  0.62049400  0.10059900  1
  O  O16  1  0.90993200  0.87950600  0.60059900  1
  O  O17  1  0.42496400  0.87310900  0.90576900  1
  O  O18  1  0.57503600  0.87310900  0.40576900  1
  O  O19  1  0.09006800  0.87950600  0.10059900  1
  O  O20  1  0.09006800  0.12049400  0.39940100  1
  O  O21  1  0.57503600  0.12689100  0.09423100  1
  O  O22  1  0.90993200  0.12049400  0.89940100  1
  O  O23  1  0.42496400  0.12689100  0.59423100  1
  O  O24  1  0.07503600  0.37310900  0.09423100  1
  O  O25  1  0.40993200  0.37950600  0.89940100  1
  O  O26  1  0.92496400  0.37310900  0.59423100  1
  O  O27  1  0.59006800  0.37950600  0.39940100  1
