# generated using pymatgen
data_Li6Mn5Fe(BO3)6
_symmetry_space_group_name_H-M   'P 1'
_cell_length_a   3.18491300
_cell_length_b   8.26784300
_cell_length_c   14.33766115
_cell_angle_alpha   89.94693481
_cell_angle_beta   90.00000000
_cell_angle_gamma   90.00000000
_symmetry_Int_Tables_number   1
_chemical_formula_structural   Li6Mn5Fe(BO3)6
_chemical_formula_sum   'Li6 Mn5 Fe1 B6 O18'
_cell_volume   377.54430237
_cell_formula_units_Z   1
loop_
 _symmetry_equiv_pos_site_id
 _symmetry_equiv_pos_as_xyz
  1  'x, y, z'
loop_
 _atom_site_type_symbol
 _atom_site_label
 _atom_site_symmetry_multiplicity
 _atom_site_fract_x
 _atom_site_fract_y
 _atom_site_fract_z
 _atom_site_occupancy
  Li  Li0  1  0.50000000  0.70710500  0.00906500  1
  Li  Li1  1  0.50000000  0.65939200  0.64169100  1
  Li  Li2  1  0.50000000  0.63259400  0.34883300  1
  Li  Li3  1  0.50000000  0.20731900  0.50778100  1
  Li  Li4  1  0.50000000  0.15968300  0.14229600  1
  Li  Li5  1  0.50000000  0.13312900  0.84938500  1
  Mn  Mn6  1  0.00000000  0.86629500  0.49364400  1
  Mn  Mn7  1  0.00000000  0.82628900  0.18578200  1
  Mn  Mn8  1  0.00000000  0.80863600  0.82045500  1
  Mn  Mn9  1  0.00000000  0.36520300  0.99432400  1
  Mn  Mn10  1  0.00000000  0.32607500  0.68580300  1
  Fe  Fe11  1  0.00000000  0.31284600  0.32077300  1
  B  B12  1  0.50000000  0.00213700  0.33297500  1
  B  B13  1  0.00000000  0.99997000  0.00010100  1
  B  B14  1  0.50000000  0.00007200  0.66655600  1
  B  B15  1  0.50000000  0.49990900  0.83336200  1
  B  B16  1  0.00000000  0.49849300  0.49978700  1
  B  B17  1  0.50000000  0.49888800  0.16769800  1
  O  O18  1  0.50000000  0.98971400  0.56985500  1
  O  O19  1  0.50000000  0.98590100  0.23621500  1
  O  O20  1  0.50000000  0.86327000  0.38875900  1
  O  O21  1  0.50000000  0.85995400  0.72016200  1
  O  O22  1  0.00000000  0.84522600  0.03901500  1
  O  O23  1  0.50000000  0.65218000  0.87483100  1
  O  O24  1  0.50000000  0.65002100  0.20990100  1
  O  O25  1  0.00000000  0.63532900  0.55646900  1
  O  O26  1  0.00000000  0.51463800  0.40253500  1
  O  O27  1  0.50000000  0.48777200  0.07090300  1
  O  O28  1  0.50000000  0.48612900  0.73652100  1
  O  O29  1  0.50000000  0.36159800  0.88883500  1
  O  O30  1  0.50000000  0.35954000  0.22220500  1
  O  O31  1  0.00000000  0.34482800  0.53932500  1
  O  O32  1  0.50000000  0.15497500  0.37319000  1
  O  O33  1  0.50000000  0.15034900  0.70975500  1
  O  O34  1  0.00000000  0.13560000  0.05788800  1
  O  O35  1  0.00000000  0.01894100  0.90332700  1
