# generated using pymatgen
data_LiMnSiO4
_symmetry_space_group_name_H-M   'P 1'
_cell_length_a   10.28389100
_cell_length_b   5.72788600
_cell_length_c   10.32999119
_cell_angle_alpha   89.40117281
_cell_angle_beta   90.00000000
_cell_angle_gamma   90.00000000
_symmetry_Int_Tables_number   1
_chemical_formula_structural   LiMnSiO4
_chemical_formula_sum   'Li8 Mn8 Si8 O32'
_cell_volume   608.45443555
_cell_formula_units_Z   8
loop_
 _symmetry_equiv_pos_site_id
 _symmetry_equiv_pos_as_xyz
  1  'x, y, z'
loop_
 _atom_site_type_symbol
 _atom_site_label
 _atom_site_symmetry_multiplicity
 _atom_site_fract_x
 _atom_site_fract_y
 _atom_site_fract_z
 _atom_site_occupancy
  Li  Li0  1  0.15994500  0.87945800  0.85206300  1
  Li  Li1  1  0.34005500  0.87945800  0.35206300  1
  Li  Li2  1  0.62776400  0.63623800  0.60405900  1
  Li  Li3  1  0.87223600  0.63623800  0.10405900  1
  Li  Li4  1  0.12776400  0.36376200  0.89594100  1
  Li  Li5  1  0.37223600  0.36376200  0.39594100  1
  Li  Li6  1  0.65994500  0.12054200  0.64793700  1
  Li  Li7  1  0.84005500  0.12054200  0.14793700  1
  Mn  Mn8  1  0.87331000  0.84527300  0.51947200  1
  Mn  Mn9  1  0.62669000  0.84527300  0.01947200  1
  Mn  Mn10  1  0.40939000  0.63785100  0.77688300  1
  Mn  Mn11  1  0.09061000  0.63785100  0.27688300  1
  Mn  Mn12  1  0.90939000  0.36214900  0.72311700  1
  Mn  Mn13  1  0.59061000  0.36214900  0.22311700  1
  Mn  Mn14  1  0.37331000  0.15472700  0.98052800  1
  Mn  Mn15  1  0.12669000  0.15472700  0.48052800  1
  Si  Si16  1  0.89256200  0.87602300  0.82982900  1
  Si  Si17  1  0.60743800  0.87602300  0.32982900  1
  Si  Si18  1  0.14748600  0.62546400  0.58448900  1
  Si  Si19  1  0.35251400  0.62546400  0.08448900  1
  Si  Si20  1  0.64748600  0.37453600  0.91551100  1
  Si  Si21  1  0.85251400  0.37453600  0.41551100  1
  Si  Si22  1  0.39256200  0.12397700  0.67017100  1
  Si  Si23  1  0.10743800  0.12397700  0.17017100  1
  O  O24  1  0.80082200  0.88230600  0.96175100  1
  O  O25  1  0.48938200  0.89255500  0.66955500  1
  O  O26  1  0.69917800  0.88230600  0.46175100  1
  O  O27  1  0.01061800  0.89255500  0.16955500  1
  O  O28  1  0.80376400  0.88431600  0.69440200  1
  O  O29  1  0.05021800  0.85306400  0.58044000  1
  O  O30  1  0.69623600  0.88431600  0.19440200  1
  O  O31  1  0.44978200  0.85306400  0.08044000  1
  O  O32  1  0.24675500  0.67341800  0.70065400  1
  O  O33  1  0.98104800  0.63658200  0.83612500  1
  O  O34  1  0.25324500  0.67341800  0.20065400  1
  O  O35  1  0.51895200  0.63658200  0.33612500  1
  O  O36  1  0.56603500  0.61965900  0.88219400  1
  O  O37  1  0.29216900  0.58212500  0.93968100  1
  O  O38  1  0.93396500  0.61965900  0.38219400  1
  O  O39  1  0.20783100  0.58212500  0.43968100  1
  O  O40  1  0.79216900  0.41787500  0.56031900  1
  O  O41  1  0.06603500  0.38034100  0.61780600  1
  O  O42  1  0.70783100  0.41787500  0.06031900  1
  O  O43  1  0.43396500  0.38034100  0.11780600  1
  O  O44  1  0.48104800  0.36341800  0.66387500  1
  O  O45  1  0.74675500  0.32658200  0.79934600  1
  O  O46  1  0.01895200  0.36341800  0.16387500  1
  O  O47  1  0.75324500  0.32658200  0.29934600  1
  O  O48  1  0.55021800  0.14693600  0.91956000  1
  O  O49  1  0.30376400  0.11568400  0.80559800  1
  O  O50  1  0.94978200  0.14693600  0.41956000  1
  O  O51  1  0.19623600  0.11568400  0.30559800  1
  O  O52  1  0.98938200  0.10744500  0.83044500  1
  O  O53  1  0.30082200  0.11769400  0.53824900  1
  O  O54  1  0.51061800  0.10744500  0.33044500  1
  O  O55  1  0.19917800  0.11769400  0.03824900  1
