# generated using pymatgen
data_Li4MnV(WO6)2
_symmetry_space_group_name_H-M   'P 1'
_cell_length_a   5.07133431
_cell_length_b   9.74673833
_cell_length_c   9.00676361
_cell_angle_alpha   110.08308374
_cell_angle_beta   89.16012057
_cell_angle_gamma   90.57557951
_symmetry_Int_Tables_number   1
_chemical_formula_structural   Li4MnV(WO6)2
_chemical_formula_sum   'Li8 Mn2 V2 W4 O24'
_cell_volume   418.07437429
_cell_formula_units_Z   2
loop_
 _symmetry_equiv_pos_site_id
 _symmetry_equiv_pos_as_xyz
  1  'x, y, z'
loop_
 _atom_site_type_symbol
 _atom_site_label
 _atom_site_symmetry_multiplicity
 _atom_site_fract_x
 _atom_site_fract_y
 _atom_site_fract_z
 _atom_site_occupancy
  Li  Li0  1  0.99698600  0.43153800  0.13848900  1
  Li  Li1  1  0.99707000  0.93151300  0.63850200  1
  Li  Li2  1  0.51102700  0.93531600  0.15685000  1
  Li  Li3  1  0.51106900  0.43534300  0.65689100  1
  Li  Li4  1  0.99617100  0.16330500  0.38981400  1
  Li  Li5  1  0.99610200  0.66334000  0.88977100  1
  Li  Li6  1  0.49412000  0.69386400  0.39634300  1
  Li  Li7  1  0.49412300  0.19393300  0.89631600  1
  Mn  Mn8  1  0.49971200  0.49887100  0.00186700  1
  Mn  Mn9  1  0.49967000  0.99885100  0.50196100  1
  V  V10  1  0.99477100  0.52401100  0.49817900  1
  V  V11  1  0.99472300  0.02403900  0.99819700  1
  W  W12  1  0.01354900  0.75739700  0.23910400  1
  W  W13  1  0.01357200  0.25745600  0.73911000  1
  W  W14  1  0.49105300  0.26057800  0.26356200  1
  W  W15  1  0.49104500  0.76060800  0.76359400  1
  O  O16  1  0.30161000  0.61561200  0.18698000  1
  O  O17  1  0.30166900  0.11563200  0.68694700  1
  O  O18  1  0.12878700  0.86252700  0.11685400  1
  O  O19  1  0.12876800  0.36259600  0.61687900  1
  O  O20  1  0.29806000  0.11426500  0.05587900  1
  O  O21  1  0.29797800  0.61426900  0.55590300  1
  O  O22  1  0.19412600  0.86133700  0.43184000  1
  O  O23  1  0.19411500  0.36138000  0.93184900  1
  O  O24  1  0.80878600  0.10757500  0.17542200  1
  O  O25  1  0.80871700  0.60753900  0.67539800  1
  O  O26  1  0.37887600  0.11446200  0.34729600  1
  O  O27  1  0.37881400  0.61445900  0.84732900  1
  O  O28  1  0.62866500  0.34493000  0.12105400  1
  O  O29  1  0.62866400  0.84493000  0.62107700  1
  O  O30  1  0.17880700  0.36881500  0.31550500  1
  O  O31  1  0.17879400  0.86880500  0.81554700  1
  O  O32  1  0.81977600  0.61355600  0.07119200  1
  O  O33  1  0.81971800  0.11354900  0.57122200  1
  O  O34  1  0.69550600  0.36410800  0.43668800  1
  O  O35  1  0.69551300  0.86408600  0.93670300  1
  O  O36  1  0.87588700  0.61213400  0.37585800  1
  O  O37  1  0.87589300  0.11218200  0.87591600  1
  O  O38  1  0.69383500  0.86242400  0.31662400  1
  O  O39  1  0.69387500  0.36247900  0.81668600  1
