# generated using pymatgen
data_Li5SbS4
_symmetry_space_group_name_H-M   'P 1'
_cell_length_a   11.29122200
_cell_length_b   11.78558800
_cell_length_c   11.92077400
_cell_angle_alpha   90.00000000
_cell_angle_beta   90.00000000
_cell_angle_gamma   90.00000000
_symmetry_Int_Tables_number   1
_chemical_formula_structural   Li5SbS4
_chemical_formula_sum   'Li40 Sb8 S32'
_cell_volume   1586.34138990
_cell_formula_units_Z   8
loop_
 _symmetry_equiv_pos_site_id
 _symmetry_equiv_pos_as_xyz
  1  'x, y, z'
loop_
 _atom_site_type_symbol
 _atom_site_label
 _atom_site_symmetry_multiplicity
 _atom_site_fract_x
 _atom_site_fract_y
 _atom_site_fract_z
 _atom_site_occupancy
  Li  Li0  1  0.12179600  0.59663100  0.14693400  1
  Li  Li1  1  0.12179600  0.90336900  0.64693400  1
  Li  Li2  1  0.11213900  0.13262300  0.85120000  1
  Li  Li3  1  0.11213900  0.36737700  0.35120000  1
  Li  Li4  1  0.13354700  0.84575700  0.40689100  1
  Li  Li5  1  0.13354700  0.65424300  0.90689100  1
  Li  Li6  1  0.14235500  0.86137900  0.13276700  1
  Li  Li7  1  0.14235500  0.63862100  0.63276700  1
  Li  Li8  1  0.14907200  0.10374500  0.40040900  1
  Li  Li9  1  0.14907200  0.39625500  0.90040900  1
  Li  Li10  1  0.35092800  0.89625500  0.90040900  1
  Li  Li11  1  0.35092800  0.60374500  0.40040900  1
  Li  Li12  1  0.35764500  0.13862100  0.63276700  1
  Li  Li13  1  0.35764500  0.36137900  0.13276700  1
  Li  Li14  1  0.36645300  0.34575700  0.40689100  1
  Li  Li15  1  0.36645300  0.15424300  0.90689100  1
  Li  Li16  1  0.38786100  0.63262300  0.85120000  1
  Li  Li17  1  0.38786100  0.86737700  0.35120000  1
  Li  Li18  1  0.37820400  0.40336900  0.64693400  1
  Li  Li19  1  0.37820400  0.09663100  0.14693400  1
  Li  Li20  1  0.62179600  0.59663100  0.35306600  1
  Li  Li21  1  0.62179600  0.90336900  0.85306600  1
  Li  Li22  1  0.61213900  0.13262300  0.64880000  1
  Li  Li23  1  0.61213900  0.36737700  0.14880000  1
  Li  Li24  1  0.63354700  0.65424300  0.59310900  1
  Li  Li25  1  0.63354700  0.84575700  0.09310900  1
  Li  Li26  1  0.64235500  0.63862100  0.86723300  1
  Li  Li27  1  0.64235500  0.86137900  0.36723300  1
  Li  Li28  1  0.64907200  0.10374500  0.09959100  1
  Li  Li29  1  0.64907200  0.39625500  0.59959100  1
  Li  Li30  1  0.85092800  0.60374500  0.09959100  1
  Li  Li31  1  0.85092800  0.89625500  0.59959100  1
  Li  Li32  1  0.85764500  0.36137900  0.36723300  1
  Li  Li33  1  0.85764500  0.13862100  0.86723300  1
  Li  Li34  1  0.86645300  0.15424300  0.59310900  1
  Li  Li35  1  0.86645300  0.34575700  0.09310900  1
  Li  Li36  1  0.88786100  0.63262300  0.64880000  1
  Li  Li37  1  0.88786100  0.86737700  0.14880000  1
  Li  Li38  1  0.87820400  0.09663100  0.35306600  1
  Li  Li39  1  0.87820400  0.40336900  0.85306600  1
  Sb  Sb40  1  0.08298900  0.14540100  0.14506600  1
  Sb  Sb41  1  0.08298900  0.35459900  0.64506600  1
  Sb  Sb42  1  0.41701100  0.64540100  0.14506600  1
  Sb  Sb43  1  0.41701100  0.85459900  0.64506600  1
  Sb  Sb44  1  0.58298900  0.14540100  0.35493400  1
  Sb  Sb45  1  0.58298900  0.35459900  0.85493400  1
  Sb  Sb46  1  0.91701100  0.64540100  0.35493400  1
  Sb  Sb47  1  0.91701100  0.85459900  0.85493400  1
  S  S48  1  0.99686500  0.23280000  0.45730200  1
  S  S49  1  0.99686500  0.26720000  0.95730200  1
  S  S50  1  0.02946400  0.97018200  0.27401600  1
  S  S51  1  0.02946400  0.52981800  0.77401600  1
  S  S52  1  0.21497000  0.03198000  0.01525000  1
  S  S53  1  0.21497000  0.46802000  0.51525000  1
  S  S54  1  0.25414700  0.22668600  0.26092400  1
  S  S55  1  0.25414700  0.27331400  0.76092400  1
  S  S56  1  0.24585300  0.72668600  0.26092400  1
  S  S57  1  0.24585300  0.77331400  0.76092400  1
  S  S58  1  0.28503000  0.53198000  0.01525000  1
  S  S59  1  0.28503000  0.96802000  0.51525000  1
  S  S60  1  0.47053600  0.47018200  0.27401600  1
  S  S61  1  0.47053600  0.02981800  0.77401600  1
  S  S62  1  0.50313500  0.73280000  0.45730200  1
  S  S63  1  0.50313500  0.76720000  0.95730200  1
  S  S64  1  0.49686500  0.23280000  0.04269800  1
  S  S65  1  0.49686500  0.26720000  0.54269800  1
  S  S66  1  0.52946400  0.97018200  0.22598400  1
  S  S67  1  0.52946400  0.52981800  0.72598400  1
  S  S68  1  0.71497000  0.46802000  0.98475000  1
  S  S69  1  0.71497000  0.03198000  0.48475000  1
  S  S70  1  0.75414700  0.22668600  0.23907600  1
  S  S71  1  0.75414700  0.27331400  0.73907600  1
  S  S72  1  0.74585300  0.72668600  0.23907600  1
  S  S73  1  0.74585300  0.77331400  0.73907600  1
  S  S74  1  0.78503000  0.96802000  0.98475000  1
  S  S75  1  0.78503000  0.53198000  0.48475000  1
  S  S76  1  0.97053600  0.02981800  0.72598400  1
  S  S77  1  0.97053600  0.47018200  0.22598400  1
  S  S78  1  0.00313500  0.73280000  0.04269800  1
  S  S79  1  0.00313500  0.76720000  0.54269800  1
