# generated using pymatgen
data_Li14Co13O28
_symmetry_space_group_name_H-M   'P 1'
_cell_length_a   7.49918200
_cell_length_b   8.05935355
_cell_length_c   8.55269923
_cell_angle_alpha   102.77987540
_cell_angle_beta   104.52860818
_cell_angle_gamma   105.43692013
_symmetry_Int_Tables_number   1
_chemical_formula_structural   Li14Co13O28
_chemical_formula_sum   'Li14 Co13 O28'
_cell_volume   458.78551973
_cell_formula_units_Z   1
loop_
 _symmetry_equiv_pos_site_id
 _symmetry_equiv_pos_as_xyz
  1  'x, y, z'
loop_
 _atom_site_type_symbol
 _atom_site_label
 _atom_site_symmetry_multiplicity
 _atom_site_fract_x
 _atom_site_fract_y
 _atom_site_fract_z
 _atom_site_occupancy
  Li  Li0  1  0.93265600  0.27651300  0.20821400  1
  Li  Li1  1  0.85731800  0.07090100  0.43176700  1
  Li  Li2  1  0.64488700  0.42943700  0.07259600  1
  Li  Li3  1  0.57774200  0.21679900  0.28883200  1
  Li  Li4  1  0.79303900  0.86052500  0.65410400  1
  Li  Li5  1  0.50000000  0.00000000  0.50000000  1
  Li  Li6  1  0.72394500  0.65457600  0.86087600  1
  Li  Li7  1  0.27605500  0.34542400  0.13912400  1
  Li  Li8  1  0.20696100  0.13947500  0.34589600  1
  Li  Li9  1  0.42225800  0.78320100  0.71116800  1
  Li  Li10  1  0.00000000  0.50000000  0.00000000  1
  Li  Li11  1  0.35511300  0.57056300  0.92740400  1
  Li  Li12  1  0.14268200  0.92909900  0.56823300  1
  Li  Li13  1  0.06734400  0.72348700  0.79178600  1
  Co  Co14  1  0.92914600  0.78942100  0.21157300  1
  Co  Co15  1  0.85761800  0.57203100  0.42884800  1
  Co  Co16  1  0.64615700  0.92913100  0.07045500  1
  Co  Co17  1  0.78600800  0.35646800  0.64376800  1
  Co  Co18  1  0.57165100  0.71381500  0.28460400  1
  Co  Co19  1  0.71999300  0.13924600  0.86033700  1
  Co  Co20  1  0.50000000  0.50000000  0.50000000  1
  Co  Co21  1  0.28000700  0.86075400  0.13966300  1
  Co  Co22  1  0.42834900  0.28618500  0.71539600  1
  Co  Co23  1  0.21399200  0.64353200  0.35623200  1
  Co  Co24  1  0.35384300  0.07086900  0.92954500  1
  Co  Co25  1  0.14238200  0.42796900  0.57115200  1
  Co  Co26  1  0.07085400  0.21057900  0.78842700  1
  O  O27  1  0.90776700  0.01513800  0.21171100  1
  O  O28  1  0.93730600  0.55337000  0.23010100  1
  O  O29  1  0.86541700  0.33746400  0.44410300  1
  O  O30  1  0.63759700  0.16292900  0.05703100  1
  O  O31  1  0.84781200  0.80419500  0.41205900  1
  O  O32  1  0.65232200  0.69432500  0.08342600  1
  O  O33  1  0.98286800  0.24688000  0.97676800  1
  O  O34  1  0.79428700  0.12002700  0.65801400  1
  O  O35  1  0.77730000  0.59134100  0.62999300  1
  O  O36  1  0.58051200  0.48057700  0.30043100  1
  O  O37  1  0.55877800  0.94520100  0.26810700  1
  O  O38  1  0.70435200  0.37341200  0.84242000  1
  O  O39  1  0.50884000  0.26610100  0.51616200  1
  O  O40  1  0.30050400  0.09070200  0.13526800  1
  O  O41  1  0.69949600  0.90929800  0.86473200  1
  O  O42  1  0.49116000  0.73389900  0.48383800  1
  O  O43  1  0.29564800  0.62658800  0.15758000  1
  O  O44  1  0.44122200  0.05479900  0.73189300  1
  O  O45  1  0.41948800  0.51942300  0.69956900  1
  O  O46  1  0.22270000  0.40865900  0.37000700  1
  O  O47  1  0.20571300  0.87997300  0.34198600  1
  O  O48  1  0.01713200  0.75312000  0.02323200  1
  O  O49  1  0.34767800  0.30567500  0.91657400  1
  O  O50  1  0.15218800  0.19580500  0.58794100  1
  O  O51  1  0.36240300  0.83707100  0.94296900  1
  O  O52  1  0.13458300  0.66253600  0.55589700  1
  O  O53  1  0.06269400  0.44663000  0.76989900  1
  O  O54  1  0.09223300  0.98486200  0.78828900  1
