# generated using pymatgen
data_Li7Mn5O12
_symmetry_space_group_name_H-M   'P 1'
_cell_length_a   5.04181765
_cell_length_b   5.04183615
_cell_length_c   19.60135695
_cell_angle_alpha   93.75260013
_cell_angle_beta   93.75238033
_cell_angle_gamma   117.57774961
_symmetry_Int_Tables_number   1
_chemical_formula_structural   Li7Mn5O12
_chemical_formula_sum   'Li14 Mn10 O24'
_cell_volume   438.11888805
_cell_formula_units_Z   2
loop_
 _symmetry_equiv_pos_site_id
 _symmetry_equiv_pos_as_xyz
  1  'x, y, z'
loop_
 _atom_site_type_symbol
 _atom_site_label
 _atom_site_symmetry_multiplicity
 _atom_site_fract_x
 _atom_site_fract_y
 _atom_site_fract_z
 _atom_site_occupancy
  Li  Li0  1  0.33334000  0.66667700  0.99999700  1
  Li  Li1  1  0.33335100  0.66666500  0.49999700  1
  Li  Li2  1  0.08192200  0.41526300  0.12126700  1
  Li  Li3  1  0.08190300  0.41528200  0.62130200  1
  Li  Li4  1  0.58471100  0.91810700  0.37869800  1
  Li  Li5  1  0.58474400  0.91807600  0.87873000  1
  Li  Li6  1  0.41773400  0.07790300  0.12379500  1
  Li  Li7  1  0.41780600  0.07797100  0.62384800  1
  Li  Li8  1  0.92204900  0.58220000  0.37614600  1
  Li  Li9  1  0.92211500  0.58228700  0.87620100  1
  Li  Li10  1  0.74454800  0.75103600  0.12379200  1
  Li  Li11  1  0.74466300  0.75120100  0.62384700  1
  Li  Li12  1  0.24882300  0.25535500  0.37615200  1
  Li  Li13  1  0.24896900  0.25546900  0.87620000  1
  Mn  Mn14  1  0.83339400  0.16645800  0.25000700  1
  Mn  Mn15  1  0.83332700  0.16659400  0.75006200  1
  Mn  Mn16  1  0.00145300  0.99857200  0.99999600  1
  Mn  Mn17  1  0.66521700  0.33479400  0.99999300  1
  Mn  Mn18  1  0.66546900  0.33459400  0.49999900  1
  Mn  Mn19  1  0.00127700  0.99869200  0.49999600  1
  Mn  Mn20  1  0.50010500  0.49980900  0.24999700  1
  Mn  Mn21  1  0.50020500  0.49984800  0.74999200  1
  Mn  Mn22  1  0.16646700  0.83353200  0.24998500  1
  Mn  Mn23  1  0.16652200  0.83349800  0.75001300  1
  O  O24  1  0.72530500  0.05864200  0.05596100  1
  O  O25  1  0.72619300  0.05948700  0.55610800  1
  O  O26  1  0.94053300  0.27381600  0.44388400  1
  O  O27  1  0.94137300  0.27471800  0.94402700  1
  O  O28  1  0.23496200  0.56832500  0.31025400  1
  O  O29  1  0.23478800  0.56818700  0.81024300  1
  O  O30  1  0.43181900  0.76522100  0.18975400  1
  O  O31  1  0.43167700  0.76504400  0.68974000  1
  O  O32  1  0.99853200  0.68853400  0.05444400  1
  O  O33  1  0.99703000  0.68788600  0.55440700  1
  O  O34  1  0.35517400  0.33186900  0.05444900  1
  O  O35  1  0.35462700  0.33037800  0.55442700  1
  O  O36  1  0.31213000  0.00299000  0.44559000  1
  O  O37  1  0.31148300  0.00147800  0.94554300  1
  O  O38  1  0.66962800  0.64538500  0.44556300  1
  O  O39  1  0.66813800  0.64483600  0.94554000  1
  O  O40  1  0.56595700  0.23347300  0.30886200  1
  O  O41  1  0.56602400  0.23354700  0.80889900  1
  O  O42  1  0.90026700  0.89937000  0.30887900  1
  O  O43  1  0.90016700  0.89944600  0.80891600  1
  O  O44  1  0.76647200  0.43390700  0.19112100  1
  O  O45  1  0.76649700  0.43403400  0.69114200  1
  O  O46  1  0.10054100  0.09980600  0.19108900  1
  O  O47  1  0.10056800  0.09973800  0.69114500  1
