# generated using pymatgen
data_Li5V3P8O29
_symmetry_space_group_name_H-M   'P 1'
_cell_length_a   9.72092800
_cell_length_b   9.75748904
_cell_length_c   14.09300285
_cell_angle_alpha   89.55983815
_cell_angle_beta   89.69864393
_cell_angle_gamma   60.39203312
_symmetry_Int_Tables_number   1
_chemical_formula_structural   Li5V3P8O29
_chemical_formula_sum   'Li10 V6 P16 O58'
_cell_volume   1162.16729562
_cell_formula_units_Z   2
loop_
 _symmetry_equiv_pos_site_id
 _symmetry_equiv_pos_as_xyz
  1  'x, y, z'
loop_
 _atom_site_type_symbol
 _atom_site_label
 _atom_site_symmetry_multiplicity
 _atom_site_fract_x
 _atom_site_fract_y
 _atom_site_fract_z
 _atom_site_occupancy
  Li  Li0  1  0.23439500  0.09107600  0.55539900  1
  Li  Li1  1  0.09806800  0.66129400  0.55789000  1
  Li  Li2  1  0.23785100  0.66515300  0.06179100  1
  Li  Li3  1  0.66551900  0.10160700  0.06282500  1
  Li  Li4  1  0.66803100  0.23061900  0.55840600  1
  Li  Li5  1  0.32900800  0.90754100  0.94260400  1
  Li  Li6  1  0.90091700  0.33228400  0.43683300  1
  Li  Li7  1  0.90436400  0.77113800  0.94332600  1
  Li  Li8  1  0.98245000  0.07870700  0.01234200  1
  Li  Li9  1  0.02557500  0.95108200  0.49402500  1
  V  V10  1  0.43670300  0.56458600  0.25253900  1
  V  V11  1  0.56673500  0.43362400  0.75177700  1
  V  V12  1  0.43489100  0.00146900  0.74504500  1
  V  V13  1  0.56587300  0.99828100  0.25207200  1
  V  V14  1  0.00271300  0.43191200  0.24527200  1
  V  V15  1  0.99903800  0.56421500  0.75308300  1
  P  P16  1  0.08572400  0.22064200  0.83902700  1
  P  P17  1  0.22119900  0.08670000  0.34174600  1
  P  P18  1  0.08752600  0.68657800  0.34114200  1
  P  P19  1  0.33572400  0.33539400  0.13080600  1
  P  P20  1  0.33315900  0.33633600  0.63106500  1
  P  P21  1  0.22950200  0.68475100  0.84482400  1
  P  P22  1  0.30534700  0.77696000  0.65960300  1
  P  P23  1  0.68621600  0.08634200  0.84335900  1
  P  P24  1  0.31014100  0.91340500  0.15811900  1
  P  P25  1  0.68623800  0.22465100  0.34358300  1
  P  P26  1  0.77847000  0.30742600  0.16081100  1
  P  P27  1  0.67160900  0.66211800  0.36831400  1
  P  P28  1  0.66053400  0.67196100  0.86760000  1
  P  P29  1  0.91337900  0.31398200  0.65604700  1
  P  P30  1  0.78203200  0.91407000  0.66059400  1
  P  P31  1  0.91259700  0.77538700  0.15877200  1
  O  O32  1  0.99536800  0.23089100  0.56574400  1
  O  O33  1  0.07741500  0.25559700  0.33596600  1
  O  O34  1  0.22107100  0.98743400  0.06819500  1
  O  O35  1  0.25974000  0.08347500  0.83493000  1
  O  O36  1  0.08080500  0.38194200  0.82834200  1
  O  O37  1  0.19282000  0.32755600  0.17698600  1
  O  O38  1  0.08109200  0.53434800  0.33016900  1
  O  O39  1  0.00262100  0.77359800  0.07035200  1
  O  O40  1  0.08229800  0.66360400  0.84288700  1
  O  O41  1  0.32137300  0.18995200  0.66796700  1
  O  O42  1  0.37664300  0.08937200  0.32846700  1
  O  O43  1  0.18896000  0.48811600  0.67205700  1
  O  O44  1  0.33140700  0.35097300  0.02535800  1
  O  O45  1  0.34154800  0.33851600  0.52520600  1
  O  O46  1  0.32793900  0.48896100  0.17488700  1
  O  O47  1  0.53006500  0.08830800  0.82819800  1
  O  O48  1  0.49054500  0.18821500  0.16761600  1
  O  O49  1  0.26079100  0.65542000  0.33152600  1
  O  O50  1  0.20958400  0.80106600  0.75871100  1
  O  O51  1  0.19646500  0.79055400  0.58081700  1
  O  O52  1  0.23902100  0.76092400  0.93512600  1
  O  O53  1  0.38162900  0.52510400  0.82547100  1
  O  O54  1  0.48902900  0.32361000  0.67531600  1
  O  O55  1  0.34307500  0.73937500  0.16223400  1
  O  O56  1  0.52868800  0.38121200  0.32785400  1
  O  O57  1  0.65708300  0.08459800  0.33694500  1
  O  O58  1  0.20222900  0.99641200  0.25017600  1
  O  O59  1  0.20830300  0.01039000  0.43185100  1
  O  O60  1  0.79853900  0.00439500  0.57944000  1
  O  O61  1  0.33892100  0.91653100  0.65654200  1
  O  O62  1  0.45908800  0.61639600  0.66931300  1
  O  O63  1  0.66126100  0.25625700  0.83299000  1
  O  O64  1  0.52371800  0.66091500  0.31828000  1
  O  O65  1  0.61592200  0.45869800  0.16907300  1
  O  O66  1  0.79195400  0.20174800  0.08058300  1
  O  O67  1  0.76743900  0.22608400  0.43424200  1
  O  O68  1  0.80195300  0.20785900  0.25805500  1
  O  O69  1  0.74248300  0.33739900  0.66020500  1
  O  O70  1  0.50954800  0.81503200  0.82493600  1
  O  O71  1  0.46466100  0.91871200  0.16971100  1
  O  O72  1  0.66436600  0.52310000  0.81814800  1
  O  O73  1  0.65395000  0.66925600  0.97297700  1
  O  O74  1  0.66158200  0.65734300  0.47325200  1
  O  O75  1  0.81641000  0.50804600  0.32950200  1
  O  O76  1  0.62031700  0.91997800  0.66902200  1
  O  O77  1  0.67268500  0.80728300  0.32301100  1
  O  O78  1  0.91404900  0.34460500  0.16050100  1
  O  O79  1  0.00738800  0.19880400  0.74305400  1
  O  O80  1  0.00116900  0.20622300  0.92225100  1
  O  O81  1  0.90844300  0.47071200  0.67252600  1
  O  O82  1  0.81028500  0.67794500  0.83077100  1
  O  O83  1  0.90694500  0.62222800  0.17218100  1
  O  O84  1  0.74534800  0.92102300  0.15852400  1
  O  O85  1  0.76883300  0.00935300  0.93503200  1
  O  O86  1  0.80460400  0.98673400  0.75870900  1
  O  O87  1  0.91868700  0.74044300  0.66207700  1
  O  O88  1  0.01889400  0.77287200  0.43190800  1
  O  O89  1  0.99802500  0.79853600  0.25098200  1
