# generated using pymatgen
data_Li4V3P8O29
_symmetry_space_group_name_H-M   'P 1'
_cell_length_a   9.77631300
_cell_length_b   9.78359382
_cell_length_c   13.93052488
_cell_angle_alpha   90.08945018
_cell_angle_beta   90.08138329
_cell_angle_gamma   119.95394658
_symmetry_Int_Tables_number   1
_chemical_formula_structural   Li4V3P8O29
_chemical_formula_sum   'Li8 V6 P16 O58'
_cell_volume   1154.43915504
_cell_formula_units_Z   2
loop_
 _symmetry_equiv_pos_site_id
 _symmetry_equiv_pos_as_xyz
  1  'x, y, z'
loop_
 _atom_site_type_symbol
 _atom_site_label
 _atom_site_symmetry_multiplicity
 _atom_site_fract_x
 _atom_site_fract_y
 _atom_site_fract_z
 _atom_site_occupancy
  Li  Li0  1  0.91049400  0.22936800  0.55937500  1
  Li  Li1  1  0.77015400  0.09306600  0.06064500  1
  Li  Li2  1  0.32287000  0.22546900  0.05905400  1
  Li  Li3  1  0.67762100  0.90414500  0.44080200  1
  Li  Li4  1  0.32242100  0.09520800  0.55844200  1
  Li  Li5  1  0.68063400  0.76899000  0.93983900  1
  Li  Li6  1  0.09068500  0.77177700  0.44074000  1
  Li  Li7  1  0.09553500  0.32409300  0.93947200  1
  V  V8  1  0.56607000  0.99892200  0.24847900  1
  V  V9  1  0.42688600  0.99506300  0.75494700  1
  V  V10  1  0.57150000  0.56554600  0.74435200  1
  V  V11  1  0.43211900  0.43663900  0.25682900  1
  V  V12  1  0.99517500  0.56609300  0.24432800  1
  V  V13  1  0.00025900  0.43675000  0.75166100  1
  P  P14  1  0.91628300  0.68766500  0.84405800  1
  P  P15  1  0.77233900  0.68689600  0.34137500  1
  P  P16  1  0.91240700  0.23115400  0.34350800  1
  P  P17  1  0.66279600  0.33124900  0.12690900  1
  P  P18  1  0.66365700  0.32668900  0.62683100  1
  P  P19  1  0.76981000  0.08815800  0.84217300  1
  P  P20  1  0.68031600  0.91236400  0.65888400  1
  P  P21  1  0.31866100  0.23270000  0.84183400  1
  P  P22  1  0.68184400  0.76753300  0.15504900  1
  P  P23  1  0.31939700  0.08745000  0.34203000  1
  P  P24  1  0.22956500  0.91402200  0.15736900  1
  P  P25  1  0.33171800  0.66920400  0.37327400  1
  P  P26  1  0.33765500  0.66523800  0.87307100  1
  P  P27  1  0.08623300  0.76883000  0.65666400  1
  P  P28  1  0.22877300  0.31513800  0.65707300  1
  P  P29  1  0.08820000  0.31687300  0.15943900  1
  O  O30  1  0.01097700  0.76758600  0.56447200  1
  O  O31  1  0.91703000  0.66144900  0.33961600  1
  O  O32  1  0.75104000  0.75641600  0.06346800  1
  O  O33  1  0.74342200  0.66094100  0.83597000  1
  O  O34  1  0.90484600  0.52375000  0.82365300  1
  O  O35  1  0.81411500  0.48235700  0.17348800  1
  O  O36  1  0.90559700  0.38316000  0.32053500  1
  O  O37  1  0.00004400  0.24175600  0.06825100  1
  O  O38  1  0.91754300  0.25336400  0.84215100  1
  O  O39  1  0.66474600  0.47837100  0.67366100  1
  O  O40  1  0.61873000  0.52321300  0.32438200  1
  O  O41  1  0.81201800  0.32574300  0.66690300  1
  O  O42  1  0.66778100  0.33536200  0.02037800  1
  O  O43  1  0.65768100  0.32908000  0.52045800  1
  O  O44  1  0.67372700  0.18638300  0.16649700  1
  O  O45  1  0.47803600  0.38462700  0.82351300  1
  O  O46  1  0.51389900  0.33117700  0.16904400  1
  O  O47  1  0.74451600  0.08359700  0.33853700  1
  O  O48  1  0.79310200  0.00103400  0.75005600  1
  O  O49  1  0.75698400  0.99924600  0.56843600  1
  O  O50  1  0.75569100  0.99844900  0.93225500  1
  O  O51  1  0.61839200  0.09729400  0.82296600  1
  O  O52  1  0.51073400  0.18113900  0.66992500  1
  O  O53  1  0.66286400  0.91583000  0.16014700  1
  O  O54  1  0.47920300  0.09896100  0.32460200  1
  O  O55  1  0.34036600  0.25585100  0.33400200  1
  O  O56  1  0.79468900  0.78874400  0.24559000  1
  O  O57  1  0.76179700  0.76837800  0.42800900  1
  O  O58  1  0.24138900  0.23291700  0.57181400  1
  O  O59  1  0.65728000  0.74434700  0.66336800  1
  O  O60  1  0.52179400  0.90622400  0.67726000  1
  O  O61  1  0.34251300  0.08802200  0.83648300  1
  O  O62  1  0.48552900  0.81300300  0.33278900  1
  O  O63  1  0.38148500  0.90431000  0.17479900  1
  O  O64  1  0.23537100  0.00523700  0.07193300  1
  O  O65  1  0.24165200  0.00320600  0.43263300  1
  O  O66  1  0.20519700  0.99472400  0.25319400  1
  O  O67  1  0.25680400  0.91909400  0.66429100  1
  O  O68  1  0.49004900  0.67154600  0.83031300  1
  O  O69  1  0.52197200  0.61649300  0.17944400  1
  O  O70  1  0.33545200  0.81473800  0.82645200  1
  O  O71  1  0.34202600  0.67173500  0.97950600  1
  O  O72  1  0.33106700  0.66461600  0.47971600  1
  O  O73  1  0.18210800  0.66901500  0.33077000  1
  O  O74  1  0.38184900  0.47678800  0.67722500  1
  O  O75  1  0.33144600  0.51771200  0.32687200  1
  O  O76  1  0.08545900  0.74332300  0.16506600  1
  O  O77  1  0.99563100  0.78928600  0.74684900  1
  O  O78  1  0.99984500  0.76841700  0.93180200  1
  O  O79  1  0.10024800  0.62186800  0.67627500  1
  O  O80  1  0.18789700  0.51406100  0.83373700  1
  O  O81  1  0.09680100  0.47837700  0.17631400  1
  O  O82  1  0.25568400  0.33832400  0.15994000  1
  O  O83  1  0.24369400  0.24284600  0.93334300  1
  O  O84  1  0.20441700  0.21060300  0.75351200  1
  O  O85  1  0.08312500  0.33794600  0.65949800  1
  O  O86  1  0.99406300  0.24027700  0.43463800  1
  O  O87  1  0.00075800  0.20812900  0.25069500  1
