# generated using pymatgen
data_Li4Fe2Ni3Sn(PO4)6
_symmetry_space_group_name_H-M   'P 1'
_cell_length_a   8.46631400
_cell_length_b   8.60338442
_cell_length_c   8.60606869
_cell_angle_alpha   62.38204840
_cell_angle_beta   62.76491927
_cell_angle_gamma   62.84222398
_symmetry_Int_Tables_number   1
_chemical_formula_structural   Li4Fe2Ni3Sn(PO4)6
_chemical_formula_sum   'Li4 Fe2 Ni3 Sn1 P6 O24'
_cell_volume   469.51242275
_cell_formula_units_Z   1
loop_
 _symmetry_equiv_pos_site_id
 _symmetry_equiv_pos_as_xyz
  1  'x, y, z'
loop_
 _atom_site_type_symbol
 _atom_site_label
 _atom_site_symmetry_multiplicity
 _atom_site_fract_x
 _atom_site_fract_y
 _atom_site_fract_z
 _atom_site_occupancy
  Li  Li0  1  0.25492700  0.64706000  0.85050800  1
  Li  Li1  1  0.70120100  0.35879400  0.15810000  1
  Li  Li2  1  0.36259500  0.15245600  0.70107400  1
  Li  Li3  1  0.15184600  0.69700600  0.36206700  1
  Fe  Fe4  1  0.98498900  0.99943800  0.99599900  1
  Fe  Fe5  1  0.51245700  0.50193200  0.49701300  1
  Ni  Ni6  1  0.85745800  0.85300400  0.85154300  1
  Ni  Ni7  1  0.64406100  0.64791500  0.64566500  1
  Ni  Ni8  1  0.35376000  0.34930100  0.35230000  1
  Sn  Sn9  1  0.14696500  0.14836100  0.15261700  1
  P  P10  1  0.74975300  0.04542400  0.45866600  1
  P  P11  1  0.44735200  0.74938500  0.04358200  1
  P  P12  1  0.05572800  0.45883300  0.75241600  1
  P  P13  1  0.94375200  0.55718500  0.25560300  1
  P  P14  1  0.55977000  0.25276000  0.94650600  1
  P  P15  1  0.25412800  0.94634100  0.55778300  1
  O  O16  1  0.88930000  0.50372300  0.70008000  1
  O  O17  1  0.68965000  0.89235400  0.48542000  1
  O  O18  1  0.94649900  0.73769700  0.08840000  1
  O  O19  1  0.45124200  0.69460100  0.89628900  1
  O  O20  1  0.97876200  0.39483400  0.19381700  1
  O  O21  1  0.75068500  0.57247100  0.40402400  1
  O  O22  1  0.74926400  0.09948600  0.92436000  1
  O  O23  1  0.55032600  0.41567600  0.76455900  1
  O  O24  1  0.82588600  0.01181900  0.60276300  1
  O  O25  1  0.40179700  0.75206700  0.57388800  1
  O  O26  1  0.89856100  0.08246800  0.24922400  1
  O  O27  1  0.60629400  0.81597800  0.99196600  1
  O  O28  1  0.39888800  0.18086700  0.98846600  1
  O  O29  1  0.10149700  0.92318600  0.75054000  1
  O  O30  1  0.59266800  0.24197400  0.43794000  1
  O  O31  1  0.18907200  0.98148400  0.39783700  1
  O  O32  1  0.43625700  0.59098500  0.23819300  1
  O  O33  1  0.24175800  0.90190800  0.08550400  1
  O  O34  1  0.25025700  0.43324200  0.59192400  1
  O  O35  1  0.04646500  0.59880300  0.82038400  1
  O  O36  1  0.52527400  0.31187100  0.10617200  1
  O  O37  1  0.08100600  0.25292900  0.90299500  1
  O  O38  1  0.31592200  0.10475200  0.52255900  1
  O  O39  1  0.10193000  0.51663000  0.32425800  1
