# generated using pymatgen
data_Li3Cu3(PO4)2
_symmetry_space_group_name_H-M   'P 1'
_cell_length_a   5.44904900
_cell_length_b   6.21412394
_cell_length_c   10.18835654
_cell_angle_alpha   90.12590259
_cell_angle_beta   90.21706227
_cell_angle_gamma   90.55061418
_symmetry_Int_Tables_number   1
_chemical_formula_structural   Li3Cu3(PO4)2
_chemical_formula_sum   'Li6 Cu6 P4 O16'
_cell_volume   344.96934509
_cell_formula_units_Z   2
loop_
 _symmetry_equiv_pos_site_id
 _symmetry_equiv_pos_as_xyz
  1  'x, y, z'
loop_
 _atom_site_type_symbol
 _atom_site_label
 _atom_site_symmetry_multiplicity
 _atom_site_fract_x
 _atom_site_fract_y
 _atom_site_fract_z
 _atom_site_occupancy
  Li  Li0  1  0.15517000  0.00164800  0.74599500  1
  Li  Li1  1  0.15324700  0.00009400  0.24833400  1
  Li  Li2  1  0.32831100  0.75438500  0.49796400  1
  Li  Li3  1  0.32852400  0.75100800  0.99648700  1
  Li  Li4  1  0.67329300  0.74551400  0.74521000  1
  Li  Li5  1  0.84717300  0.49890200  0.49617800  1
  Cu  Cu6  1  0.65666400  0.74495200  0.25149300  1
  Cu  Cu7  1  0.81679000  0.50236400  0.99579800  1
  Cu  Cu8  1  0.66538200  0.26377000  0.74464800  1
  Cu  Cu9  1  0.65742400  0.25439100  0.24789900  1
  Cu  Cu10  1  0.33740400  0.24159200  0.49720800  1
  Cu  Cu11  1  0.33090600  0.24978600  0.99862400  1
  P  P12  1  0.83416200  0.99247500  0.99650200  1
  P  P13  1  0.83053000  0.99259800  0.50238000  1
  P  P14  1  0.17527400  0.50477000  0.25193800  1
  P  P15  1  0.17672600  0.50921200  0.74583400  1
  O  O16  1  0.83600500  0.99127000  0.65556900  1
  O  O17  1  0.09583300  0.98532600  0.44555100  1
  O  O18  1  0.84348000  0.99432400  0.14934300  1
  O  O19  1  0.09930100  0.98638600  0.94048300  1
  O  O20  1  0.68229500  0.79000500  0.45530100  1
  O  O21  1  0.68047400  0.79685700  0.94317300  1
  O  O22  1  0.30228400  0.70909300  0.19321900  1
  O  O23  1  0.32015400  0.70853200  0.69251500  1
  O  O24  1  0.18159700  0.51425600  0.89952200  1
  O  O25  1  0.90818300  0.51456600  0.69265900  1
  O  O26  1  0.17566800  0.51246500  0.40466800  1
  O  O27  1  0.90564700  0.50010600  0.20071300  1
  O  O28  1  0.29754000  0.29288800  0.70071600  1
  O  O29  1  0.29896200  0.29145900  0.20430300  1
  O  O30  1  0.70576300  0.20514100  0.45441300  1
  O  O31  1  0.69983300  0.19986400  0.94795500  1
