# generated using pymatgen
data_Li3V2(O2F)2
_symmetry_space_group_name_H-M   'P 1'
_cell_length_a   5.22280400
_cell_length_b   5.97124663
_cell_length_c   14.94223032
_cell_angle_alpha   91.13006031
_cell_angle_beta   90.73031306
_cell_angle_gamma   91.72646160
_symmetry_Int_Tables_number   1
_chemical_formula_structural   Li3V2(O2F)2
_chemical_formula_sum   'Li12 V8 O16 F8'
_cell_volume   465.65449261
_cell_formula_units_Z   4
loop_
 _symmetry_equiv_pos_site_id
 _symmetry_equiv_pos_as_xyz
  1  'x, y, z'
loop_
 _atom_site_type_symbol
 _atom_site_label
 _atom_site_symmetry_multiplicity
 _atom_site_fract_x
 _atom_site_fract_y
 _atom_site_fract_z
 _atom_site_occupancy
  Li  Li0  1  0.70945200  0.99217600  0.83748400  1
  Li  Li1  1  0.66283900  0.00244200  0.33327300  1
  Li  Li2  1  0.33136300  0.99822500  0.70709000  1
  Li  Li3  1  0.15915500  0.74327900  0.33383100  1
  Li  Li4  1  0.15380400  0.77261400  0.83720500  1
  Li  Li5  1  0.52694100  0.75868700  0.97437900  1
  Li  Li6  1  0.69087100  0.51023200  0.82112200  1
  Li  Li7  1  0.99229800  0.47934400  0.96084300  1
  Li  Li8  1  0.32319800  0.50399600  0.70219100  1
  Li  Li9  1  0.15377500  0.25906300  0.33452900  1
  Li  Li10  1  0.45773600  0.24455200  0.95543800  1
  Li  Li11  1  0.86290300  0.24399400  0.70150800  1
  V  V12  1  0.99675600  0.99948500  0.50445000  1
  V  V13  1  0.32946200  0.99985100  0.16281500  1
  V  V14  1  0.49647100  0.75057000  0.49627300  1
  V  V15  1  0.82554400  0.74499500  0.17082400  1
  V  V16  1  0.99924800  0.50142300  0.49960800  1
  V  V17  1  0.33856400  0.50083900  0.17289000  1
  V  V18  1  0.50449400  0.25040000  0.49656900  1
  V  V19  1  0.83600400  0.24727300  0.16687800  1
  O  O20  1  0.66818400  0.00974600  0.56340600  1
  O  O21  1  0.65651600  0.98537000  0.10185700  1
  O  O22  1  0.99595700  0.99136800  0.24223200  1
  O  O23  1  0.33369600  0.01009600  0.42329200  1
  O  O24  1  0.17304100  0.75456100  0.56562100  1
  O  O25  1  0.16564300  0.75618100  0.10689000  1
  O  O26  1  0.50451800  0.76690000  0.24221700  1
  O  O27  1  0.84652500  0.77083900  0.42754900  1
  O  O28  1  0.65467000  0.48551500  0.56035800  1
  O  O29  1  0.68038600  0.51462200  0.10187700  1
  O  O30  1  0.00553900  0.50228300  0.24249200  1
  O  O31  1  0.31705200  0.49436400  0.42502000  1
  O  O32  1  0.17208900  0.23665500  0.56537200  1
  O  O33  1  0.16844000  0.24900500  0.10287600  1
  O  O34  1  0.49089900  0.23360500  0.23879200  1
  O  O35  1  0.83213400  0.23550300  0.42728200  1
  F  F36  1  0.00210800  0.99742600  0.75158700  1
  F  F37  1  0.36526000  0.97449600  0.91276100  1
  F  F38  1  0.48045900  0.74880800  0.75929100  1
  F  F39  1  0.83422400  0.73163300  0.90985600  1
  F  F40  1  0.00257300  0.50511100  0.74921200  1
  F  F41  1  0.32753800  0.51622700  0.93134400  1
  F  F42  1  0.52359400  0.25994500  0.73699800  1
  F  F43  1  0.78141200  0.26630400  0.90928400  1
