# generated using pymatgen
data_LiV2(CO3)4
_symmetry_space_group_name_H-M   'P 1'
_cell_length_a   7.50353642
_cell_length_b   7.50353642
_cell_length_c   8.72982234
_cell_angle_alpha   72.97465234
_cell_angle_beta   72.97465234
_cell_angle_gamma   106.13033742
_symmetry_Int_Tables_number   1
_chemical_formula_structural   LiV2(CO3)4
_chemical_formula_sum   'Li2 V4 C8 O24'
_cell_volume   412.32330970
_cell_formula_units_Z   2
loop_
 _symmetry_equiv_pos_site_id
 _symmetry_equiv_pos_as_xyz
  1  'x, y, z'
loop_
 _atom_site_type_symbol
 _atom_site_label
 _atom_site_symmetry_multiplicity
 _atom_site_fract_x
 _atom_site_fract_y
 _atom_site_fract_z
 _atom_site_occupancy
  Li  Li0  1  0.25054300  0.99781200  0.99936800  1
  Li  Li1  1  0.99781200  0.25054300  0.49936800  1
  V  V2  1  0.75036500  0.99553900  0.99964200  1
  V  V3  1  0.50486400  0.24979300  0.50023400  1
  V  V4  1  0.99553900  0.75036500  0.49964200  1
  V  V5  1  0.24979300  0.50486400  0.00023400  1
  C  C6  1  0.45103200  0.56385300  0.24573000  1
  C  C7  1  0.04831900  0.43581800  0.75689900  1
  C  C8  1  0.93961000  0.54744000  0.25900000  1
  C  C9  1  0.43581800  0.04831900  0.25689900  1
  C  C10  1  0.05990400  0.95327400  0.73862200  1
  C  C11  1  0.56385300  0.45103200  0.74573000  1
  C  C12  1  0.95327400  0.05990400  0.23862200  1
  C  C13  1  0.54744000  0.93961000  0.75900000  1
  O  O14  1  0.49322000  0.03213500  0.10644700  1
  O  O15  1  0.60146300  0.71592600  0.10626700  1
  O  O16  1  0.47941800  0.51018300  0.38672500  1
  O  O17  1  0.03213500  0.49322000  0.60644700  1
  O  O18  1  0.89410500  0.27886700  0.88758600  1
  O  O19  1  0.01903300  0.71867100  0.26904200  1
  O  O20  1  0.52671600  0.20386400  0.27556900  1
  O  O21  1  0.28558600  0.47446000  0.23494300  1
  O  O22  1  0.79000700  0.98109100  0.22202200  1
  O  O23  1  0.19189500  0.11936900  0.60515300  1
  O  O24  1  0.71592600  0.60146300  0.60626700  1
  O  O25  1  0.00299100  0.95645100  0.89534200  1
  O  O26  1  0.99261100  0.53459200  0.11022200  1
  O  O27  1  0.81232200  0.38686000  0.40118600  1
  O  O28  1  0.27886700  0.89410500  0.38758600  1
  O  O29  1  0.71867100  0.01903300  0.76904200  1
  O  O30  1  0.20386400  0.52671600  0.77556900  1
  O  O31  1  0.98109100  0.79000700  0.72202200  1
  O  O32  1  0.47446000  0.28558600  0.73494300  1
  O  O33  1  0.11936900  0.19189500  0.10515300  1
  O  O34  1  0.95645100  0.00299100  0.39534200  1
  O  O35  1  0.53459200  0.99261100  0.61022200  1
  O  O36  1  0.38686000  0.81232200  0.90118600  1
  O  O37  1  0.51018300  0.47941800  0.88672500  1
