# generated using pymatgen
data_Li6Cu5F14
_symmetry_space_group_name_H-M   'P 1'
_cell_length_a   7.86123763
_cell_length_b   7.86123763
_cell_length_c   9.86761800
_cell_angle_alpha   90.00000000
_cell_angle_beta   90.00000000
_cell_angle_gamma   92.21554668
_symmetry_Int_Tables_number   1
_chemical_formula_structural   Li6Cu5F14
_chemical_formula_sum   'Li12 Cu10 F28'
_cell_volume   609.35363303
_cell_formula_units_Z   2
loop_
 _symmetry_equiv_pos_site_id
 _symmetry_equiv_pos_as_xyz
  1  'x, y, z'
loop_
 _atom_site_type_symbol
 _atom_site_label
 _atom_site_symmetry_multiplicity
 _atom_site_fract_x
 _atom_site_fract_y
 _atom_site_fract_z
 _atom_site_occupancy
  Li  Li0  1  0.98949700  0.98949700  0.03941200  1
  Li  Li1  1  0.82371300  0.33384200  0.52863300  1
  Li  Li2  1  0.79462700  0.49992500  0.98786100  1
  Li  Li3  1  0.68376800  0.68376800  0.55099000  1
  Li  Li4  1  0.66615800  0.17628700  0.02863300  1
  Li  Li5  1  0.50007500  0.20537300  0.48786100  1
  Li  Li6  1  0.49992500  0.79462700  0.98786100  1
  Li  Li7  1  0.33384200  0.82371300  0.52863300  1
  Li  Li8  1  0.31623200  0.31623200  0.05099000  1
  Li  Li9  1  0.20537300  0.50007500  0.48786100  1
  Li  Li10  1  0.17628700  0.66615800  0.02863300  1
  Li  Li11  1  0.01050300  0.01050300  0.53941200  1
  Cu  Cu12  1  0.98528300  0.62715800  0.28827600  1
  Cu  Cu13  1  0.95677600  0.24370700  0.25268900  1
  Cu  Cu14  1  0.75629300  0.04322400  0.75268900  1
  Cu  Cu15  1  0.62715800  0.98528300  0.28827600  1
  Cu  Cu16  1  0.51141900  0.51141900  0.26151100  1
  Cu  Cu17  1  0.48858100  0.48858100  0.76151100  1
  Cu  Cu18  1  0.37284200  0.01471700  0.78827600  1
  Cu  Cu19  1  0.24370700  0.95677600  0.25268900  1
  Cu  Cu20  1  0.04322400  0.75629300  0.75268900  1
  Cu  Cu21  1  0.01471700  0.37284200  0.78827600  1
  F  F22  1  0.99388600  0.42045300  0.40979700  1
  F  F23  1  0.95166500  0.20091800  0.64838100  1
  F  F24  1  0.93828200  0.93828200  0.85958600  1
  F  F25  1  0.86705600  0.45349700  0.16845700  1
  F  F26  1  0.85011000  0.85011000  0.60860600  1
  F  F27  1  0.83157100  0.27823800  0.91075800  1
  F  F28  1  0.79908200  0.04833500  0.14838100  1
  F  F29  1  0.72176200  0.16842900  0.41075800  1
  F  F30  1  0.70978000  0.47411700  0.64077200  1
  F  F31  1  0.67525700  0.67525700  0.35087400  1
  F  F32  1  0.57954700  0.00611400  0.90979700  1
  F  F33  1  0.59251900  0.59251900  0.93365400  1
  F  F34  1  0.54650300  0.13294400  0.66845700  1
  F  F35  1  0.52588300  0.29022000  0.14077200  1
  F  F36  1  0.47411700  0.70978000  0.64077200  1
  F  F37  1  0.45349700  0.86705600  0.16845700  1
  F  F38  1  0.40748100  0.40748100  0.43365400  1
  F  F39  1  0.42045300  0.99388600  0.40979700  1
  F  F40  1  0.32474300  0.32474300  0.85087400  1
  F  F41  1  0.29022000  0.52588300  0.14077200  1
  F  F42  1  0.27823800  0.83157100  0.91075800  1
  F  F43  1  0.20091800  0.95166500  0.64838100  1
  F  F44  1  0.16842900  0.72176200  0.41075800  1
  F  F45  1  0.14989000  0.14989000  0.10860600  1
  F  F46  1  0.13294400  0.54650300  0.66845700  1
  F  F47  1  0.06171800  0.06171800  0.35958600  1
  F  F48  1  0.04833500  0.79908200  0.14838100  1
  F  F49  1  0.00611400  0.57954700  0.90979700  1
