# generated using pymatgen
data_Li3SbS3
_symmetry_space_group_name_H-M   'P 1'
_cell_length_a   14.92073000
_cell_length_b   6.21629500
_cell_length_c   8.53263776
_cell_angle_alpha   50.48959164
_cell_angle_beta   90.00000000
_cell_angle_gamma   90.00000000
_symmetry_Int_Tables_number   1
_chemical_formula_structural   Li3SbS3
_chemical_formula_sum   'Li12 Sb4 S12'
_cell_volume   610.58482240
_cell_formula_units_Z   4
loop_
 _symmetry_equiv_pos_site_id
 _symmetry_equiv_pos_as_xyz
  1  'x, y, z'
loop_
 _atom_site_type_symbol
 _atom_site_label
 _atom_site_symmetry_multiplicity
 _atom_site_fract_x
 _atom_site_fract_y
 _atom_site_fract_z
 _atom_site_occupancy
  Li  Li0  1  0.64604100  0.65073900  0.52639700  1
  Li  Li1  1  0.42536300  0.95787500  0.15296400  1
  Li  Li2  1  0.92536300  0.04212500  0.34703600  1
  Li  Li3  1  0.14604100  0.34926100  0.97360300  1
  Li  Li4  1  0.73769600  0.01622900  0.10421800  1
  Li  Li5  1  0.23769600  0.98377100  0.39578200  1
  Li  Li6  1  0.76230400  0.01622900  0.60421800  1
  Li  Li7  1  0.26230400  0.98377100  0.89578200  1
  Li  Li8  1  0.85395900  0.65073900  0.02639700  1
  Li  Li9  1  0.07463700  0.95787500  0.65296400  1
  Li  Li10  1  0.57463700  0.04212500  0.84703600  1
  Li  Li11  1  0.35395900  0.34926100  0.47360300  1
  Sb  Sb12  1  0.90295300  0.31098300  0.76438800  1
  Sb  Sb13  1  0.40295300  0.68901700  0.73561200  1
  Sb  Sb14  1  0.59704700  0.31098300  0.26438800  1
  Sb  Sb15  1  0.09704700  0.68901700  0.23561200  1
  S  S16  1  0.89819300  0.91058200  0.13168600  1
  S  S17  1  0.26203900  0.74227900  0.25695700  1
  S  S18  1  0.41629600  0.25554400  0.77316600  1
  S  S19  1  0.76203900  0.25772100  0.24304300  1
  S  S20  1  0.91629600  0.74445600  0.72683400  1
  S  S21  1  0.39819300  0.08941800  0.36831400  1
  S  S22  1  0.60180700  0.91058200  0.63168600  1
  S  S23  1  0.08370400  0.25554400  0.27316600  1
  S  S24  1  0.23796100  0.74227900  0.75695700  1
  S  S25  1  0.58370400  0.74445600  0.22683400  1
  S  S26  1  0.73796100  0.25772100  0.74304300  1
  S  S27  1  0.10180700  0.08941800  0.86831400  1
