# generated using pymatgen
data_Li5V5O12
_symmetry_space_group_name_H-M   'P 1'
_cell_length_a   5.09006500
_cell_length_b   5.10248004
_cell_length_c   19.78077093
_cell_angle_alpha   87.32729284
_cell_angle_beta   85.35869304
_cell_angle_gamma   60.52318657
_symmetry_Int_Tables_number   1
_chemical_formula_structural   Li5V5O12
_chemical_formula_sum   'Li10 V10 O24'
_cell_volume   445.76313894
_cell_formula_units_Z   2
loop_
 _symmetry_equiv_pos_site_id
 _symmetry_equiv_pos_as_xyz
  1  'x, y, z'
loop_
 _atom_site_type_symbol
 _atom_site_label
 _atom_site_symmetry_multiplicity
 _atom_site_fract_x
 _atom_site_fract_y
 _atom_site_fract_z
 _atom_site_occupancy
  Li  Li0  1  0.66271600  0.17772800  0.99852900  1
  Li  Li1  1  0.42219800  0.18100100  0.75165700  1
  Li  Li2  1  0.37835700  0.49973500  0.87549600  1
  Li  Li3  1  0.15994900  0.17281100  0.49830400  1
  Li  Li4  1  0.01623600  0.50085600  0.99833800  1
  Li  Li5  1  0.23409700  0.49618700  0.25137800  1
  Li  Li6  1  0.90590900  0.18351600  0.25131600  1
  Li  Li7  1  0.09801100  0.82976300  0.75147000  1
  Li  Li8  1  0.87422200  0.50075300  0.37484600  1
  Li  Li9  1  0.51408100  0.49429300  0.49843700  1
  V  V10  1  0.79243400  0.16980700  0.62525300  1
  V  V11  1  0.54111500  0.16757300  0.37615700  1
  V  V12  1  0.03798900  0.17530000  0.87293600  1
  V  V13  1  0.29365300  0.16402800  0.12542000  1
  V  V14  1  0.12107600  0.50511400  0.62457400  1
  V  V15  1  0.70403700  0.83010900  0.87624500  1
  V  V16  1  0.62164300  0.50655300  0.12505800  1
  V  V17  1  0.95339100  0.83973800  0.12512900  1
  V  V18  1  0.46141000  0.83473700  0.62478800  1
  V  V19  1  0.21035000  0.82895300  0.37391900  1
  O  O20  1  0.76188500  0.13279900  0.82076500  1
  O  O21  1  0.84765700  0.14997000  0.42727900  1
  O  O22  1  0.34582000  0.14671100  0.92740100  1
  O  O23  1  0.47077000  0.18079700  0.57028200  1
  O  O24  1  0.61130600  0.16881500  0.18044600  1
  O  O25  1  0.25274100  0.15018500  0.32210300  1
  O  O26  1  0.11236800  0.15989000  0.67976500  1
  O  O27  1  0.43786600  0.49708400  0.68069900  1
  O  O28  1  0.24051600  0.47085100  0.43022500  1
  O  O29  1  0.04142500  0.48786300  0.82162800  1
  O  O30  1  0.96724400  0.17387900  0.07026400  1
  O  O31  1  0.30149800  0.50048800  0.06992200  1
  O  O32  1  0.73196900  0.47333900  0.92916400  1
  O  O33  1  0.94707600  0.49882100  0.18091100  1
  O  O34  1  0.80789800  0.48072300  0.56898800  1
  O  O35  1  0.14401900  0.84423300  0.56994200  1
  O  O36  1  0.98330900  0.85723400  0.92816000  1
  O  O37  1  0.53455200  0.47571600  0.31990100  1
  O  O38  1  0.77500700  0.85781900  0.67993600  1
  O  O39  1  0.90428500  0.85293900  0.32310800  1
  O  O40  1  0.66847500  0.83571300  0.06951900  1
  O  O41  1  0.38078500  0.86631700  0.82250300  1
  O  O42  1  0.49036300  0.85274900  0.42754100  1
  O  O43  1  0.24744000  0.83415300  0.18008100  1
