# generated using pymatgen
data_Li4MnV3(P2O7)4
_symmetry_space_group_name_H-M   'P 1'
_cell_length_a   9.59318331
_cell_length_b   9.63854451
_cell_length_c   7.16138404
_cell_angle_alpha   79.76080949
_cell_angle_beta   79.12051709
_cell_angle_gamma   119.11758531
_symmetry_Int_Tables_number   1
_chemical_formula_structural   Li4MnV3(P2O7)4
_chemical_formula_sum   'Li4 Mn1 V3 P8 O28'
_cell_volume   539.31224628
_cell_formula_units_Z   1
loop_
 _symmetry_equiv_pos_site_id
 _symmetry_equiv_pos_as_xyz
  1  'x, y, z'
loop_
 _atom_site_type_symbol
 _atom_site_label
 _atom_site_symmetry_multiplicity
 _atom_site_fract_x
 _atom_site_fract_y
 _atom_site_fract_z
 _atom_site_occupancy
  Li  Li0  1  0.06933625  0.43012533  0.32467055  1
  Li  Li1  1  0.31829157  0.18075904  0.67451411  1
  Li  Li2  1  0.56761092  0.92886601  0.32486110  1
  Li  Li3  1  0.82042022  0.68221900  0.67475302  1
  Mn  Mn4  1  0.25888015  0.25774014  0.26796118  1
  V  V5  1  0.75665297  0.75648024  0.27158501  1
  V  V6  1  0.49423828  0.99432547  0.72757532  1
  V  V7  1  0.99345774  0.49237673  0.72797361  1
  P  P8  1  0.34925878  0.52828317  0.52285109  1
  P  P9  1  0.85043037  0.02939014  0.52148842  1
  P  P10  1  0.67052332  0.45512747  0.08683967  1
  P  P11  1  0.17228707  0.95532594  0.08773130  1
  P  P12  1  0.29430190  0.58145956  0.91367427  1
  P  P13  1  0.79483686  0.07866928  0.91391989  1
  P  P14  1  0.21961091  0.89997149  0.48184235  1
  P  P15  1  0.72047703  0.40134960  0.47798354  1
  O  O16  1  0.19013757  0.12391697  0.08433316  1
  O  O17  1  0.01692403  0.19336364  0.39188214  1
  O  O18  1  0.20312663  0.04525120  0.50505309  1
  O  O19  1  0.27797154  0.48218035  0.11468646  1
  O  O20  1  0.48669433  0.31090074  0.14489116  1
  O  O21  1  0.33554025  0.37162086  0.48131601  1
  O  O22  1  0.19939298  0.54159922  0.50645363  1
  O  O23  1  0.70022839  0.04274923  0.50593953  1
  O  O24  1  0.55697305  0.23505581  0.60504418  1
  O  O25  1  0.05632173  0.73114301  0.60461889  1
  O  O26  1  0.62561059  0.05934822  0.91653385  1
  O  O27  1  0.12501993  0.56128742  0.91360827  1
  O  O28  1  0.34525477  0.49898888  0.75330449  1
  O  O29  1  0.75174803  0.40544724  0.24669471  1
  O  O30  1  0.25198935  0.90649520  0.24884481  1
  O  O31  1  0.68843415  0.62230651  0.08528135  1
  O  O32  1  0.51579451  0.69253434  0.39540672  1
  O  O33  1  0.70737502  0.55110328  0.49403195  1
  O  O34  1  0.87845596  0.41682921  0.51727717  1
  O  O35  1  0.37916394  0.91569555  0.51755459  1
  O  O36  1  0.93704067  0.26122671  0.85107349  1
  O  O37  1  0.43814203  0.76441768  0.84670570  1
  O  O38  1  0.27543326  0.97018115  0.88713222  1
  O  O39  1  0.77513121  0.47198807  0.88587857  1
  O  O40  1  0.77825624  0.97486142  0.11374204  1
  O  O41  1  0.98856872  0.81312120  0.14858691  1
  O  O42  1  0.83349371  0.87152419  0.48167346  1
  O  O43  1  0.84558611  0.99797305  0.75222502  1
