# generated using pymatgen
data_LiFeSiO4
_symmetry_space_group_name_H-M   'P 1'
_cell_length_a   8.60423469
_cell_length_b   8.60423469
_cell_length_c   8.60423453
_cell_angle_alpha   107.33759128
_cell_angle_beta   107.33759128
_cell_angle_gamma   107.33759424
_symmetry_Int_Tables_number   1
_chemical_formula_structural   LiFeSiO4
_chemical_formula_sum   'Li6 Fe6 Si6 O24'
_cell_volume   525.53445504
_cell_formula_units_Z   6
loop_
 _symmetry_equiv_pos_site_id
 _symmetry_equiv_pos_as_xyz
  1  'x, y, z'
loop_
 _atom_site_type_symbol
 _atom_site_label
 _atom_site_symmetry_multiplicity
 _atom_site_fract_x
 _atom_site_fract_y
 _atom_site_fract_z
 _atom_site_occupancy
  Li  Li0  1  0.77299300  0.94411600  0.54201700  1
  Li  Li1  1  0.05588400  0.45798300  0.22700700  1
  Li  Li2  1  0.45798300  0.22700700  0.05588400  1
  Li  Li3  1  0.54201700  0.77299300  0.94411600  1
  Li  Li4  1  0.94411600  0.54201700  0.77299300  1
  Li  Li5  1  0.22700700  0.05588400  0.45798300  1
  Fe  Fe6  1  0.42314800  0.60720900  0.19900400  1
  Fe  Fe7  1  0.39279100  0.80099600  0.57685200  1
  Fe  Fe8  1  0.80099600  0.57685200  0.39279100  1
  Fe  Fe9  1  0.19900400  0.42314800  0.60720900  1
  Fe  Fe10  1  0.60720900  0.19900400  0.42314800  1
  Fe  Fe11  1  0.57685200  0.39279100  0.80099600  1
  Si  Si12  1  0.26608900  0.86845000  0.09511600  1
  Si  Si13  1  0.90488400  0.73391100  0.13155000  1
  Si  Si14  1  0.13155000  0.90488400  0.73391100  1
  Si  Si15  1  0.86845000  0.09511600  0.26608900  1
  Si  Si16  1  0.09511600  0.26608900  0.86845000  1
  Si  Si17  1  0.73391100  0.13155000  0.90488400  1
  O  O18  1  0.05058600  0.73862300  0.03680600  1
  O  O19  1  0.96319400  0.94941400  0.26137700  1
  O  O20  1  0.38081400  0.75087700  0.06987200  1
  O  O21  1  0.93012800  0.61918600  0.24912300  1
  O  O22  1  0.29985000  0.35538200  0.02547100  1
  O  O23  1  0.66303200  0.70489400  0.36254400  1
  O  O24  1  0.24912300  0.93012800  0.61918600  1
  O  O25  1  0.29510600  0.63745600  0.33696800  1
  O  O26  1  0.64461800  0.97452900  0.70015000  1
  O  O27  1  0.97452900  0.70015000  0.64461800  1
  O  O28  1  0.63745600  0.33696800  0.29510600  1
  O  O29  1  0.26137700  0.96319400  0.94941400  1
  O  O30  1  0.73862300  0.03680600  0.05058600  1
  O  O31  1  0.36254400  0.66303200  0.70489400  1
  O  O32  1  0.02547100  0.29985000  0.35538200  1
  O  O33  1  0.35538200  0.02547100  0.29985000  1
  O  O34  1  0.70489400  0.36254400  0.66303200  1
  O  O35  1  0.75087700  0.06987200  0.38081400  1
  O  O36  1  0.33696800  0.29510600  0.63745600  1
  O  O37  1  0.70015000  0.64461800  0.97452900  1
  O  O38  1  0.06987200  0.38081400  0.75087700  1
  O  O39  1  0.61918600  0.24912300  0.93012800  1
  O  O40  1  0.03680600  0.05058600  0.73862300  1
  O  O41  1  0.94941400  0.26137700  0.96319400  1
