# generated using pymatgen
data_LiVF5
_symmetry_space_group_name_H-M   'P 1'
_cell_length_a   17.84744600
_cell_length_b   5.49013100
_cell_length_c   9.57553187
_cell_angle_alpha   54.95171306
_cell_angle_beta   90.00000000
_cell_angle_gamma   90.00000000
_symmetry_Int_Tables_number   1
_chemical_formula_structural   LiVF5
_chemical_formula_sum   'Li8 V8 F40'
_cell_volume   768.12110417
_cell_formula_units_Z   8
loop_
 _symmetry_equiv_pos_site_id
 _symmetry_equiv_pos_as_xyz
  1  'x, y, z'
loop_
 _atom_site_type_symbol
 _atom_site_label
 _atom_site_symmetry_multiplicity
 _atom_site_fract_x
 _atom_site_fract_y
 _atom_site_fract_z
 _atom_site_occupancy
  Li  Li0  1  0.30473400  0.88305100  0.36150700  1
  Li  Li1  1  0.11896300  0.51777700  0.72807800  1
  Li  Li2  1  0.61896300  0.48222300  0.77192200  1
  Li  Li3  1  0.80473400  0.11694900  0.13849300  1
  Li  Li4  1  0.19526600  0.88305100  0.86150700  1
  Li  Li5  1  0.38103700  0.51777700  0.22807800  1
  Li  Li6  1  0.88103700  0.48222300  0.27192200  1
  Li  Li7  1  0.69526600  0.11694900  0.63849300  1
  V  V8  1  0.11833800  0.10722700  0.13602000  1
  V  V9  1  0.37658000  0.28555100  0.95773500  1
  V  V10  1  0.61833800  0.89277300  0.36398000  1
  V  V11  1  0.87658000  0.71444900  0.54226500  1
  V  V12  1  0.12342000  0.28555100  0.45773500  1
  V  V13  1  0.38166200  0.10722700  0.63602000  1
  V  V14  1  0.62342000  0.71444900  0.04226500  1
  V  V15  1  0.88166200  0.89277300  0.86398000  1
  F  F16  1  0.34988900  0.50203500  0.51923900  1
  F  F17  1  0.15442000  0.45572900  0.57120200  1
  F  F18  1  0.35726300  0.90009500  0.16523300  1
  F  F19  1  0.59645800  0.91112600  0.15684100  1
  F  F20  1  0.13694200  0.12737800  0.93174200  1
  F  F21  1  0.90517400  0.32302100  0.74766100  1
  F  F22  1  0.28458000  0.31983200  0.87195000  1
  F  F23  1  0.21247400  0.97253700  0.22633600  1
  F  F24  1  0.52180900  0.81317500  0.41584500  1
  F  F25  1  0.97281400  0.74944400  0.48192400  1
  F  F26  1  0.47281400  0.25055600  0.01807600  1
  F  F27  1  0.02180900  0.18682500  0.08415500  1
  F  F28  1  0.71247400  0.02746300  0.27366400  1
  F  F29  1  0.78458000  0.68016800  0.62805000  1
  F  F30  1  0.40517400  0.67697900  0.75233900  1
  F  F31  1  0.09645800  0.08887400  0.34315900  1
  F  F32  1  0.63694200  0.87262200  0.56825800  1
  F  F33  1  0.85726300  0.09990500  0.33476700  1
  F  F34  1  0.65442000  0.54427100  0.92879800  1
  F  F35  1  0.84988900  0.49796500  0.98076100  1
  F  F36  1  0.15011100  0.50203500  0.01923900  1
  F  F37  1  0.34558000  0.45572900  0.07120200  1
  F  F38  1  0.14273700  0.90009500  0.66523300  1
  F  F39  1  0.36305800  0.12737800  0.43174200  1
  F  F40  1  0.90354200  0.91112600  0.65684100  1
  F  F41  1  0.59482600  0.32302100  0.24766100  1
  F  F42  1  0.21542000  0.31983200  0.37195000  1
  F  F43  1  0.28752600  0.97253700  0.72633600  1
  F  F44  1  0.97819100  0.81317500  0.91584500  1
  F  F45  1  0.52718600  0.74944400  0.98192400  1
  F  F46  1  0.02718600  0.25055600  0.51807600  1
  F  F47  1  0.47819100  0.18682500  0.58415500  1
  F  F48  1  0.78752600  0.02746300  0.77366400  1
  F  F49  1  0.71542000  0.68016800  0.12805000  1
  F  F50  1  0.09482600  0.67697900  0.25233900  1
  F  F51  1  0.86305800  0.87262200  0.06825800  1
  F  F52  1  0.40354200  0.08887400  0.84315900  1
  F  F53  1  0.64273700  0.09990500  0.83476700  1
  F  F54  1  0.84558000  0.54427100  0.42879800  1
  F  F55  1  0.65011100  0.49796500  0.48076100  1
