# generated using pymatgen
data_Li2FeP2O7
_symmetry_space_group_name_H-M   'P 1'
_cell_length_a   7.22920396
_cell_length_b   9.58114055
_cell_length_c   8.94792382
_cell_angle_alpha   97.17648205
_cell_angle_beta   113.74323918
_cell_angle_gamma   78.93193685
_symmetry_Int_Tables_number   1
_chemical_formula_structural   Li2FeP2O7
_chemical_formula_sum   'Li8 Fe4 P8 O28'
_cell_volume   555.97608948
_cell_formula_units_Z   4
loop_
 _symmetry_equiv_pos_site_id
 _symmetry_equiv_pos_as_xyz
  1  'x, y, z'
loop_
 _atom_site_type_symbol
 _atom_site_label
 _atom_site_symmetry_multiplicity
 _atom_site_fract_x
 _atom_site_fract_y
 _atom_site_fract_z
 _atom_site_occupancy
  Li  Li0  1  0.49637000  0.29685200  0.96236400  1
  Li  Li1  1  0.99371200  0.79705900  0.96075100  1
  Li  Li2  1  0.50610400  0.70261700  0.03939900  1
  Li  Li3  1  0.00413800  0.20302000  0.03776900  1
  Li  Li4  1  0.26640000  0.95162700  0.75973200  1
  Li  Li5  1  0.76885700  0.45178300  0.76027300  1
  Li  Li6  1  0.73100200  0.04812500  0.23960000  1
  Li  Li7  1  0.23351500  0.54838500  0.24035900  1
  Fe  Fe8  1  0.85561500  0.74881600  0.36562300  1
  Fe  Fe9  1  0.64429100  0.75127200  0.63469800  1
  Fe  Fe10  1  0.35472900  0.24924700  0.36511800  1
  Fe  Fe11  1  0.14521200  0.25100100  0.63450600  1
  P  P12  1  0.19200700  0.95738900  0.39794500  1
  P  P13  1  0.69333500  0.45707300  0.39779300  1
  P  P14  1  0.80644800  0.04297900  0.60187500  1
  P  P15  1  0.30813000  0.54276500  0.60235300  1
  P  P16  1  0.65852900  0.04495800  0.87459800  1
  P  P17  1  0.16120500  0.54444100  0.87560900  1
  P  P18  1  0.33910500  0.95514700  0.12468300  1
  P  P19  1  0.84124700  0.45529500  0.12510200  1
  O  O20  1  0.48017200  0.41697800  0.34523700  1
  O  O21  1  0.97853700  0.91742700  0.34497800  1
  O  O22  1  0.52159200  0.58275800  0.65515800  1
  O  O23  1  0.01969200  0.08295700  0.65463400  1
  O  O24  1  0.18326500  0.12109000  0.41419000  1
  O  O25  1  0.68435200  0.62080200  0.41424200  1
  O  O26  1  0.81503200  0.87924600  0.58550800  1
  O  O27  1  0.31702100  0.37908800  0.58579400  1
  O  O28  1  0.43266900  0.11238100  0.81763700  1
  O  O29  1  0.93539200  0.61215900  0.81951500  1
  O  O30  1  0.56492600  0.88743300  0.18081100  1
  O  O31  1  0.06703900  0.38767100  0.18199600  1
  O  O32  1  0.30114500  0.11840100  0.13974400  1
  O  O33  1  0.80306600  0.61857700  0.14009000  1
  O  O34  1  0.69717600  0.88166000  0.85998600  1
  O  O35  1  0.19909700  0.38121800  0.86023000  1
  O  O36  1  0.21679400  0.89514600  0.95316900  1
  O  O37  1  0.72013200  0.39497900  0.95345700  1
  O  O38  1  0.77939400  0.10555500  0.04618700  1
  O  O39  1  0.28358400  0.60423700  0.04720100  1
  O  O40  1  0.64806700  0.11688900  0.45130500  1
  O  O41  1  0.14978700  0.61694100  0.45187100  1
  O  O42  1  0.35016500  0.88340800  0.54860300  1
  O  O43  1  0.85194700  0.38312200  0.54826100  1
  O  O44  1  0.74938000  0.10385500  0.75864800  1
  O  O45  1  0.25110900  0.60364300  0.75908400  1
  O  O46  1  0.24935900  0.89618300  0.24141800  1
  O  O47  1  0.75015700  0.39634200  0.24089500  1
