# generated using pymatgen
data_LiMnPO4
_symmetry_space_group_name_H-M   'P 1'
_cell_length_a   6.02192800
_cell_length_b   7.82851201
_cell_length_c   8.68698889
_cell_angle_alpha   116.77623546
_cell_angle_beta   89.99860784
_cell_angle_gamma   90.00237716
_symmetry_Int_Tables_number   1
_chemical_formula_structural   LiMnPO4
_chemical_formula_sum   'Li4 Mn4 P4 O16'
_cell_volume   365.61581513
_cell_formula_units_Z   4
loop_
 _symmetry_equiv_pos_site_id
 _symmetry_equiv_pos_as_xyz
  1  'x, y, z'
loop_
 _atom_site_type_symbol
 _atom_site_label
 _atom_site_symmetry_multiplicity
 _atom_site_fract_x
 _atom_site_fract_y
 _atom_site_fract_z
 _atom_site_occupancy
  Li  Li0  1  0.76509800  0.26390300  0.53016000  1
  Li  Li1  1  0.26505000  0.26656700  0.53020300  1
  Li  Li2  1  0.26505000  0.73345300  0.46980600  1
  Li  Li3  1  0.76509400  0.73608800  0.46983200  1
  Mn  Mn4  1  0.01376300  0.29031800  0.19322000  1
  Mn  Mn5  1  0.01371100  0.70973600  0.80680600  1
  Mn  Mn6  1  0.51378500  0.09709600  0.80660500  1
  Mn  Mn7  1  0.51377700  0.90284500  0.19338000  1
  P  P8  1  0.01711500  0.07784200  0.74172000  1
  P  P9  1  0.51707000  0.66399200  0.74190100  1
  P  P10  1  0.51710000  0.33600500  0.25810000  1
  P  P11  1  0.01711000  0.92216100  0.25827900  1
  O  O12  1  0.02385200  0.13757000  0.93529400  1
  O  O13  1  0.52381900  0.20219300  0.06453700  1
  O  O14  1  0.52384400  0.79782000  0.93546300  1
  O  O15  1  0.02385400  0.86244000  0.06470700  1
  O  O16  1  0.80123900  0.15251900  0.69389900  1
  O  O17  1  0.30114600  0.54155200  0.69407400  1
  O  O18  1  0.30120600  0.45847700  0.30596300  1
  O  O19  1  0.80122700  0.84747600  0.30609400  1
  O  O20  1  0.23060100  0.15064400  0.68898900  1
  O  O21  1  0.73055200  0.53848100  0.68917000  1
  O  O22  1  0.73060000  0.46150600  0.31081600  1
  O  O23  1  0.23057300  0.84932600  0.31099300  1
  O  O24  1  0.51494200  0.20748600  0.35609500  1
  O  O25  1  0.01494400  0.14865700  0.35617000  1
  O  O26  1  0.01491700  0.85134500  0.64382800  1
  O  O27  1  0.51492700  0.79250200  0.64389800  1
