# generated using pymatgen
data_LiNi(PO3)4
_symmetry_space_group_name_H-M   'P 1'
_cell_length_a   8.85412101
_cell_length_b   8.85412101
_cell_length_c   9.72430897
_cell_angle_alpha   58.91602403
_cell_angle_beta   58.91602403
_cell_angle_gamma   49.45783446
_symmetry_Int_Tables_number   1
_chemical_formula_structural   LiNi(PO3)4
_chemical_formula_sum   'Li2 Ni2 P8 O24'
_cell_volume   476.63289553
_cell_formula_units_Z   2
loop_
 _symmetry_equiv_pos_site_id
 _symmetry_equiv_pos_as_xyz
  1  'x, y, z'
loop_
 _atom_site_type_symbol
 _atom_site_label
 _atom_site_symmetry_multiplicity
 _atom_site_fract_x
 _atom_site_fract_y
 _atom_site_fract_z
 _atom_site_occupancy
  Li  Li0  1  0.83085300  0.16914700  0.25000000  1
  Li  Li1  1  0.16914700  0.83085300  0.75000000  1
  Ni  Ni2  1  0.29048100  0.70951900  0.25000000  1
  Ni  Ni3  1  0.70951900  0.29048100  0.75000000  1
  P  P4  1  0.68783300  0.02943500  0.10629500  1
  P  P5  1  0.28095100  0.42947500  0.16192400  1
  P  P6  1  0.57052500  0.71904900  0.33807600  1
  P  P7  1  0.97056500  0.31216800  0.39370500  1
  P  P8  1  0.02943500  0.68783300  0.60629500  1
  P  P9  1  0.42947500  0.28095100  0.66192400  1
  P  P10  1  0.71904900  0.57052500  0.83807600  1
  P  P11  1  0.31216700  0.97056500  0.89370500  1
  O  O12  1  0.15841900  0.59618200  0.04216400  1
  O  O13  1  0.45757700  0.22653300  0.09807800  1
  O  O14  1  0.76713900  0.00879300  0.21971300  1
  O  O15  1  0.65797700  0.84510400  0.15875600  1
  O  O16  1  0.19119800  0.94990800  0.08010600  1
  O  O17  1  0.15489600  0.34202300  0.34124400  1
  O  O18  1  0.99120700  0.23286100  0.28028700  1
  O  O19  1  0.52855600  0.61075900  0.29011100  1
  O  O20  1  0.38924100  0.47144400  0.20988900  1
  O  O21  1  0.77346700  0.54242300  0.40192200  1
  O  O22  1  0.40381800  0.84158100  0.45783600  1
  O  O23  1  0.05009200  0.80880200  0.41989400  1
  O  O24  1  0.94990800  0.19119800  0.58010600  1
  O  O25  1  0.59618200  0.15841900  0.54216400  1
  O  O26  1  0.22653300  0.45757700  0.59807800  1
  O  O27  1  0.61075900  0.52855600  0.79011100  1
  O  O28  1  0.47144400  0.38924100  0.70988900  1
  O  O29  1  0.00879300  0.76713900  0.71971300  1
  O  O30  1  0.84510400  0.65797700  0.65875600  1
  O  O31  1  0.80880200  0.05009200  0.91989400  1
  O  O32  1  0.34202300  0.15489600  0.84124400  1
  O  O33  1  0.23286100  0.99120700  0.78028700  1
  O  O34  1  0.54242300  0.77346700  0.90192200  1
  O  O35  1  0.84158100  0.40381800  0.95783600  1
