# generated using pymatgen
data_Li2Cu2Si8O19
_symmetry_space_group_name_H-M   'P 1'
_cell_length_a   4.92570800
_cell_length_b   7.18828555
_cell_length_c   12.33772023
_cell_angle_alpha   73.70058847
_cell_angle_beta   78.57431242
_cell_angle_gamma   70.19949084
_symmetry_Int_Tables_number   1
_chemical_formula_structural   Li2Cu2Si8O19
_chemical_formula_sum   'Li2 Cu2 Si8 O19'
_cell_volume   391.92391788
_cell_formula_units_Z   1
loop_
 _symmetry_equiv_pos_site_id
 _symmetry_equiv_pos_as_xyz
  1  'x, y, z'
loop_
 _atom_site_type_symbol
 _atom_site_label
 _atom_site_symmetry_multiplicity
 _atom_site_fract_x
 _atom_site_fract_y
 _atom_site_fract_z
 _atom_site_occupancy
  Li  Li0  1  0.45722200  0.42402300  0.36894500  1
  Li  Li1  1  0.23958700  0.57641700  0.63512400  1
  Cu  Cu2  1  0.72812600  0.00477600  0.59531400  1
  Cu  Cu3  1  0.33716000  0.99211800  0.40265600  1
  Si  Si4  1  0.77007800  0.68698400  0.06970900  1
  Si  Si5  1  0.14587800  0.14771100  0.83211200  1
  Si  Si6  1  0.06889600  0.28120200  0.57879700  1
  Si  Si7  1  0.22053200  0.27098300  0.17101700  1
  Si  Si8  1  0.66308300  0.72889900  0.82784200  1
  Si  Si9  1  0.93266700  0.71638900  0.42158000  1
  Si  Si10  1  0.12791500  0.84964300  0.16794500  1
  Si  Si11  1  0.52944200  0.31045300  0.92971900  1
  O  O12  1  0.85585700  0.85845200  0.10829500  1
  O  O13  1  0.42020500  0.73658900  0.09683600  1
  O  O14  1  0.12201700  0.29703400  0.70439100  1
  O  O15  1  0.74803800  0.27788700  0.57152400  1
  O  O16  1  0.92719600  0.46626600  0.14725500  1
  O  O17  1  0.33571500  0.09243300  0.54221600  1
  O  O18  1  0.32694500  0.24589600  0.29191500  1
  O  O19  1  0.36803900  0.92492500  0.82594600  1
  O  O20  1  0.47426900  0.30492900  0.06487300  1
  O  O21  1  0.84358900  0.69836300  0.93385800  1
  O  O22  1  0.12129000  0.07364900  0.17201600  1
  O  O23  1  0.86632900  0.75429000  0.70757800  1
  O  O24  1  0.97276100  0.90701800  0.45755800  1
  O  O25  1  0.54611900  0.53091900  0.85143600  1
  O  O26  1  0.60184300  0.71880900  0.42791600  1
  O  O27  1  0.12683000  0.70123400  0.29604000  1
  O  O28  1  0.12712500  0.49923200  0.50077000  1
  O  O29  1  0.25433800  0.26106600  0.90355200  1
  O  O30  1  0.82401700  0.13834300  0.89244700  1
