# generated using pymatgen
data_Li3Bi2(PO4)3
_symmetry_space_group_name_H-M   'P 1'
_cell_length_a   5.15774980
_cell_length_b   5.15774980
_cell_length_c   20.74217332
_cell_angle_alpha   89.56071168
_cell_angle_beta   89.56071168
_cell_angle_gamma   66.26004693
_symmetry_Int_Tables_number   1
_chemical_formula_structural   Li3Bi2(PO4)3
_chemical_formula_sum   'Li6 Bi4 P6 O24'
_cell_volume   505.07864742
_cell_formula_units_Z   2
loop_
 _symmetry_equiv_pos_site_id
 _symmetry_equiv_pos_as_xyz
  1  'x, y, z'
loop_
 _atom_site_type_symbol
 _atom_site_label
 _atom_site_symmetry_multiplicity
 _atom_site_fract_x
 _atom_site_fract_y
 _atom_site_fract_z
 _atom_site_occupancy
  Li  Li0  1  0.99950400  0.99950400  0.65945200  1
  Li  Li1  1  0.65622200  0.65622200  0.40258700  1
  Li  Li2  1  0.66150000  0.66150000  0.72921100  1
  Li  Li3  1  0.00049600  0.00049600  0.34054800  1
  Li  Li4  1  0.33850000  0.33850000  0.27078900  1
  Li  Li5  1  0.34377800  0.34377800  0.59741300  1
  Bi  Bi6  1  0.00000000  0.00000000  0.00000000  1
  Bi  Bi7  1  0.00160100  0.00160100  0.82058600  1
  Bi  Bi8  1  0.99839900  0.99839900  0.17941400  1
  Bi  Bi9  1  0.00000000  0.00000000  0.50000000  1
  P  P10  1  0.64550500  0.64550500  0.26166600  1
  P  P11  1  0.64065700  0.64065700  0.90589900  1
  P  P12  1  0.64518800  0.64518800  0.58394600  1
  P  P13  1  0.35934300  0.35934300  0.09410100  1
  P  P14  1  0.35481200  0.35481200  0.41605400  1
  P  P15  1  0.35449500  0.35449500  0.73833400  1
  O  O16  1  0.30675500  0.76150400  0.91070900  1
  O  O17  1  0.31052200  0.75287900  0.26308100  1
  O  O18  1  0.31092500  0.75393900  0.58629400  1
  O  O19  1  0.23849600  0.69324500  0.08929100  1
  O  O20  1  0.24712100  0.68947800  0.73691900  1
  O  O21  1  0.24606100  0.68907500  0.41370600  1
  O  O22  1  0.25166000  0.25166000  0.03586700  1
  O  O23  1  0.24884900  0.24884900  0.68011800  1
  O  O24  1  0.24591200  0.24591200  0.35877500  1
  O  O25  1  0.72056300  0.72056300  0.83886700  1
  O  O26  1  0.73674000  0.73674000  0.19741300  1
  O  O27  1  0.74834000  0.74834000  0.96413300  1
  O  O28  1  0.75115100  0.75115100  0.31988200  1
  O  O29  1  0.26940500  0.26940500  0.48243000  1
  O  O30  1  0.27943700  0.27943700  0.16113300  1
  O  O31  1  0.73059500  0.73059500  0.51757000  1
  O  O32  1  0.75408800  0.75408800  0.64122500  1
  O  O33  1  0.26326000  0.26326000  0.80258700  1
  O  O34  1  0.69324500  0.23849600  0.08929100  1
  O  O35  1  0.68947800  0.24712100  0.73691900  1
  O  O36  1  0.68907500  0.24606100  0.41370600  1
  O  O37  1  0.76150400  0.30675500  0.91070900  1
  O  O38  1  0.75393900  0.31092500  0.58629400  1
  O  O39  1  0.75287900  0.31052200  0.26308100  1
