# generated using pymatgen
data_Li4Cr3Fe3(TeO8)2
_symmetry_space_group_name_H-M   'P 1'
_cell_length_a   6.01696765
_cell_length_b   6.01696765
_cell_length_c   9.82577389
_cell_angle_alpha   89.47628110
_cell_angle_beta   89.47628110
_cell_angle_gamma   59.92445729
_symmetry_Int_Tables_number   1
_chemical_formula_structural   Li4Cr3Fe3(TeO8)2
_chemical_formula_sum   'Li4 Cr3 Fe3 Te2 O16'
_cell_volume   307.82045856
_cell_formula_units_Z   1
loop_
 _symmetry_equiv_pos_site_id
 _symmetry_equiv_pos_as_xyz
  1  'x, y, z'
loop_
 _atom_site_type_symbol
 _atom_site_label
 _atom_site_symmetry_multiplicity
 _atom_site_fract_x
 _atom_site_fract_y
 _atom_site_fract_z
 _atom_site_occupancy
  Li  Li0  1  0.66600900  0.66600900  0.09177900  1
  Li  Li1  1  0.00046900  0.00046900  0.01049000  1
  Li  Li2  1  0.00112900  0.00112900  0.50955800  1
  Li  Li3  1  0.33280500  0.33280500  0.59475800  1
  Cr  Cr4  1  0.33977900  0.83095700  0.78658200  1
  Cr  Cr5  1  0.83095700  0.33977900  0.78658200  1
  Cr  Cr6  1  0.17119700  0.17119700  0.28629200  1
  Fe  Fe7  1  0.83202300  0.83202300  0.78589800  1
  Fe  Fe8  1  0.17056000  0.66276400  0.28574900  1
  Fe  Fe9  1  0.66276400  0.17056000  0.28574900  1
  Te  Te10  1  0.66755000  0.66755000  0.51450600  1
  Te  Te11  1  0.33381000  0.33381000  0.01284600  1
  O  O12  1  0.32441800  0.83733200  0.40255600  1
  O  O13  1  0.51650300  0.51650300  0.66482300  1
  O  O14  1  0.66825800  0.66825800  0.88984900  1
  O  O15  1  0.99966800  0.99966800  0.69349300  1
  O  O16  1  0.00079400  0.00079400  0.19471400  1
  O  O17  1  0.83733200  0.32441800  0.40255600  1
  O  O18  1  0.51429900  0.96466200  0.65807900  1
  O  O19  1  0.96466200  0.51429900  0.65807900  1
  O  O20  1  0.15863700  0.15863700  0.90190900  1
  O  O21  1  0.83692500  0.83692500  0.40612900  1
  O  O22  1  0.03466400  0.48047800  0.15869200  1
  O  O23  1  0.48047800  0.03466400  0.15869200  1
  O  O24  1  0.33514800  0.33514800  0.39061000  1
  O  O25  1  0.15992200  0.67778000  0.90447800  1
  O  O26  1  0.48127800  0.48127800  0.15226700  1
  O  O27  1  0.67778000  0.15992200  0.90447800  1
