# generated using pymatgen
data_Li3Fe(PO4)2
_symmetry_space_group_name_H-M   'P 1'
_cell_length_a   10.49345100
_cell_length_b   8.22375400
_cell_length_c   8.26734929
_cell_angle_alpha   75.93826459
_cell_angle_beta   90.00000000
_cell_angle_gamma   90.00000000
_symmetry_Int_Tables_number   1
_chemical_formula_structural   Li3Fe(PO4)2
_chemical_formula_sum   'Li12 Fe4 P8 O32'
_cell_volume   692.05707819
_cell_formula_units_Z   4
loop_
 _symmetry_equiv_pos_site_id
 _symmetry_equiv_pos_as_xyz
  1  'x, y, z'
loop_
 _atom_site_type_symbol
 _atom_site_label
 _atom_site_symmetry_multiplicity
 _atom_site_fract_x
 _atom_site_fract_y
 _atom_site_fract_z
 _atom_site_occupancy
  Li  Li0  1  0.91375600  0.60233000  0.90524400  1
  Li  Li1  1  0.66509100  0.45740200  0.78141200  1
  Li  Li2  1  0.10317600  0.84762100  0.65592800  1
  Li  Li3  1  0.19097900  0.53562600  0.72325100  1
  Li  Li4  1  0.90818800  0.35191700  0.66223200  1
  Li  Li5  1  0.42416000  0.39690100  0.59744400  1
  Li  Li6  1  0.08624400  0.60233000  0.40524400  1
  Li  Li7  1  0.33490900  0.45740200  0.28141200  1
  Li  Li8  1  0.89682400  0.84762100  0.15592800  1
  Li  Li9  1  0.80902100  0.53562600  0.22325100  1
  Li  Li10  1  0.09181200  0.35191700  0.16223200  1
  Li  Li11  1  0.57584000  0.39690100  0.09744400  1
  Fe  Fe12  1  0.09303600  0.09433200  0.91295000  1
  Fe  Fe13  1  0.90696400  0.09433200  0.41295000  1
  Fe  Fe14  1  0.58341500  0.90122300  0.59464000  1
  Fe  Fe15  1  0.41658500  0.90122300  0.09464000  1
  P  P16  1  0.66128900  0.75939300  0.95917000  1
  P  P17  1  0.33696700  0.28723600  0.96938900  1
  P  P18  1  0.84098900  0.71414000  0.52907900  1
  P  P19  1  0.33871100  0.75939300  0.45917000  1
  P  P20  1  0.15532400  0.23710400  0.53983100  1
  P  P21  1  0.66303300  0.28723600  0.46938900  1
  P  P22  1  0.15901100  0.71414000  0.02907900  1
  P  P23  1  0.84467600  0.23710400  0.03983100  1
  O  O24  1  0.29865000  0.77194200  0.99809700  1
  O  O25  1  0.60762400  0.60193600  0.91843100  1
  O  O26  1  0.70929400  0.27236100  0.98451300  1
  O  O27  1  0.10250500  0.66505200  0.87454800  1
  O  O28  1  0.65664600  0.90956100  0.80035700  1
  O  O29  1  0.39967700  0.11933500  0.95474600  1
  O  O30  1  0.92549900  0.19002400  0.89452800  1
  O  O31  1  0.34064200  0.41130500  0.79957000  1
  O  O32  1  0.85366100  0.57130000  0.68837000  1
  O  O33  1  0.41808800  0.81410400  0.59762300  1
  O  O34  1  0.92262800  0.87126400  0.55401000  1
  O  O35  1  0.13842800  0.07618200  0.69287300  1
  O  O36  1  0.19869100  0.73355500  0.52186900  1
  O  O37  1  0.60829400  0.35260200  0.61103300  1
  O  O38  1  0.70135000  0.77194200  0.49809700  1
  O  O39  1  0.08756800  0.38460000  0.59111600  1
  O  O40  1  0.39237600  0.60193600  0.41843100  1
  O  O41  1  0.81197100  0.24012600  0.51131400  1
  O  O42  1  0.29070600  0.27236100  0.48451300  1
  O  O43  1  0.89749500  0.66505200  0.37454800  1
  O  O44  1  0.34335400  0.90956100  0.30035700  1
  O  O45  1  0.60032300  0.11933500  0.45474600  1
  O  O46  1  0.07450100  0.19002400  0.39452800  1
  O  O47  1  0.65935800  0.41130500  0.29957000  1
  O  O48  1  0.58191200  0.81410400  0.09762300  1
  O  O49  1  0.14633900  0.57130000  0.18837000  1
  O  O50  1  0.07737200  0.87126400  0.05401000  1
  O  O51  1  0.86157200  0.07618200  0.19287300  1
  O  O52  1  0.80130900  0.73355500  0.02186900  1
  O  O53  1  0.39170600  0.35260200  0.11103300  1
  O  O54  1  0.91243200  0.38460000  0.09111600  1
  O  O55  1  0.18802900  0.24012600  0.01131400  1
