# generated using pymatgen
data_Li6Fe3Sn(PO4)6
_symmetry_space_group_name_H-M   'P 1'
_cell_length_a   8.58767500
_cell_length_b   8.64650529
_cell_length_c   8.65690846
_cell_angle_alpha   61.77204421
_cell_angle_beta   62.05397467
_cell_angle_gamma   62.04515788
_symmetry_Int_Tables_number   1
_chemical_formula_structural   Li6Fe3Sn(PO4)6
_chemical_formula_sum   'Li6 Fe3 Sn1 P6 O24'
_cell_volume   474.42770545
_cell_formula_units_Z   1
loop_
 _symmetry_equiv_pos_site_id
 _symmetry_equiv_pos_as_xyz
  1  'x, y, z'
loop_
 _atom_site_type_symbol
 _atom_site_label
 _atom_site_symmetry_multiplicity
 _atom_site_fract_x
 _atom_site_fract_y
 _atom_site_fract_z
 _atom_site_occupancy
  Li  Li0  1  0.97711100  0.99864300  0.99174600  1
  Li  Li1  1  0.25384700  0.64826700  0.85123700  1
  Li  Li2  1  0.51943800  0.50261200  0.49647000  1
  Li  Li3  1  0.70692200  0.35265500  0.16087800  1
  Li  Li4  1  0.35680200  0.16129800  0.70529500  1
  Li  Li5  1  0.16074900  0.70396000  0.35680300  1
  Fe  Fe6  1  0.85346600  0.86049100  0.85624100  1
  Fe  Fe7  1  0.64756500  0.64350400  0.63889700  1
  Fe  Fe8  1  0.35084100  0.34704600  0.35425400  1
  Sn  Sn9  1  0.14533400  0.14629700  0.15022700  1
  P  P10  1  0.25305700  0.94639700  0.55754700  1
  P  P11  1  0.94502200  0.55825800  0.25405100  1
  P  P12  1  0.55872800  0.25166600  0.94618700  1
  P  P13  1  0.75245400  0.04028400  0.46125800  1
  P  P14  1  0.45390200  0.74926700  0.03929600  1
  P  P15  1  0.04611100  0.46268400  0.75509600  1
  O  O16  1  0.87463800  0.50812300  0.70939600  1
  O  O17  1  0.69442000  0.88193900  0.49513200  1
  O  O18  1  0.94157600  0.73680400  0.08343400  1
  O  O19  1  0.46428300  0.69932900  0.88506500  1
  O  O20  1  0.98224700  0.39162500  0.19907800  1
  O  O21  1  0.75559600  0.57199700  0.40958400  1
  O  O22  1  0.74340500  0.09168600  0.92315400  1
  O  O23  1  0.55366800  0.41915300  0.76455100  1
  O  O24  1  0.82782200  0.99493500  0.61041100  1
  O  O25  1  0.40580400  0.75352000  0.57541100  1
  O  O26  1  0.90553500  0.06929500  0.26114700  1
  O  O27  1  0.61666300  0.81328800  0.98185800  1
  O  O28  1  0.39255600  0.19216300  0.98568400  1
  O  O29  1  0.09584600  0.92240300  0.74675700  1
  O  O30  1  0.59444700  0.23019600  0.44635700  1
  O  O31  1  0.19504500  0.98302100  0.39439800  1
  O  O32  1  0.44570200  0.58995300  0.22764000  1
  O  O33  1  0.25721900  0.90584400  0.07614700  1
  O  O34  1  0.23213200  0.44021300  0.59375700  1
  O  O35  1  0.02681600  0.60993400  0.81975000  1
  O  O36  1  0.53267000  0.30627200  0.10312600  1
  O  O37  1  0.06747900  0.26359500  0.91063100  1
  O  O38  1  0.31281200  0.10078200  0.52866200  1
  O  O39  1  0.10027100  0.52760500  0.31638700  1
