# generated using pymatgen
data_Li2MnAlO4
_symmetry_space_group_name_H-M   'P 1'
_cell_length_a   5.90881000
_cell_length_b   5.32689400
_cell_length_c   11.12814806
_cell_angle_alpha   69.10449321
_cell_angle_beta   90.00000000
_cell_angle_gamma   90.00000000
_symmetry_Int_Tables_number   1
_chemical_formula_structural   Li2MnAlO4
_chemical_formula_sum   'Li8 Mn4 Al4 O16'
_cell_volume   327.22910350
_cell_formula_units_Z   4
loop_
 _symmetry_equiv_pos_site_id
 _symmetry_equiv_pos_as_xyz
  1  'x, y, z'
loop_
 _atom_site_type_symbol
 _atom_site_label
 _atom_site_symmetry_multiplicity
 _atom_site_fract_x
 _atom_site_fract_y
 _atom_site_fract_z
 _atom_site_occupancy
  Li  Li0  1  0.33888400  0.93174700  0.19449100  1
  Li  Li1  1  0.16111600  0.93174700  0.69449100  1
  Li  Li2  1  0.15523000  0.69521800  0.42945700  1
  Li  Li3  1  0.34477000  0.69521800  0.92945700  1
  Li  Li4  1  0.65523000  0.30478200  0.07054300  1
  Li  Li5  1  0.84477000  0.30478200  0.57054300  1
  Li  Li6  1  0.83888400  0.06825300  0.30550900  1
  Li  Li7  1  0.66111600  0.06825300  0.80550900  1
  Mn  Mn8  1  0.18612300  0.43579700  0.18218600  1
  Mn  Mn9  1  0.68612300  0.56420300  0.31781400  1
  Mn  Mn10  1  0.31387700  0.43579700  0.68218600  1
  Mn  Mn11  1  0.81387700  0.56420300  0.81781400  1
  Al  Al12  1  0.82850400  0.81049500  0.05904900  1
  Al  Al13  1  0.67149600  0.81049500  0.55904900  1
  Al  Al14  1  0.32850400  0.18950500  0.44095100  1
  Al  Al15  1  0.17149600  0.18950500  0.94095100  1
  O  O16  1  0.68841400  0.90704100  0.18216900  1
  O  O17  1  0.81158600  0.90704100  0.68216900  1
  O  O18  1  0.14201500  0.81086700  0.05675700  1
  O  O19  1  0.35798500  0.81086700  0.55675700  1
  O  O20  1  0.81551400  0.70582900  0.44339900  1
  O  O21  1  0.33102700  0.54857400  0.31416900  1
  O  O22  1  0.68448600  0.70582900  0.94339900  1
  O  O23  1  0.16897300  0.54857400  0.81416900  1
  O  O24  1  0.83102700  0.45142600  0.18583100  1
  O  O25  1  0.31551400  0.29417100  0.05660100  1
  O  O26  1  0.66897300  0.45142600  0.68583100  1
  O  O27  1  0.18448600  0.29417100  0.55660100  1
  O  O28  1  0.64201500  0.18913300  0.44324300  1
  O  O29  1  0.85798500  0.18913300  0.94324300  1
  O  O30  1  0.18841400  0.09295900  0.31783100  1
  O  O31  1  0.31158600  0.09295900  0.81783100  1
