# generated using pymatgen
data_Li7V3P8O29
_symmetry_space_group_name_H-M   'P 1'
_cell_length_a   9.84208100
_cell_length_b   9.85025789
_cell_length_c   13.93090237
_cell_angle_alpha   89.75106134
_cell_angle_beta   89.85852999
_cell_angle_gamma   60.18181082
_symmetry_Int_Tables_number   1
_chemical_formula_structural   Li7V3P8O29
_chemical_formula_sum   'Li14 V6 P16 O58'
_cell_volume   1171.74477463
_cell_formula_units_Z   2
loop_
 _symmetry_equiv_pos_site_id
 _symmetry_equiv_pos_as_xyz
  1  'x, y, z'
loop_
 _atom_site_type_symbol
 _atom_site_label
 _atom_site_symmetry_multiplicity
 _atom_site_fract_x
 _atom_site_fract_y
 _atom_site_fract_z
 _atom_site_occupancy
  Li  Li0  1  0.32142400  0.90972500  0.43414300  1
  Li  Li1  1  0.67221200  0.67500200  0.61248500  1
  Li  Li2  1  0.66948200  0.67390700  0.11448000  1
  Li  Li3  1  0.29924300  0.78076000  0.93973100  1
  Li  Li4  1  0.91253100  0.31046600  0.93895000  1
  Li  Li5  1  0.23737300  0.66002500  0.55694700  1
  Li  Li6  1  0.76399200  0.32602900  0.43655500  1
  Li  Li7  1  0.08626200  0.68888800  0.06608000  1
  Li  Li8  1  0.69746700  0.21707500  0.05834900  1
  Li  Li9  1  0.33776300  0.33130100  0.88567000  1
  Li  Li10  1  0.66792900  0.09736000  0.56255700  1
  Li  Li11  1  0.09419400  0.23342700  0.55818700  1
  Li  Li12  1  0.22587500  0.09166000  0.06388700  1
  Li  Li13  1  0.98545700  0.94572800  0.48787100  1
  V  V14  1  0.43191300  0.56602100  0.74886200  1
  V  V15  1  0.56496200  0.43476300  0.24910900  1
  V  V16  1  0.99430900  0.57076200  0.25452800  1
  V  V17  1  0.00343500  0.43404600  0.74861200  1
  V  V18  1  0.57048900  0.99741500  0.75276600  1
  V  V19  1  0.43446900  0.00152500  0.25180000  1
  P  P20  1  0.77266600  0.91122000  0.16169500  1
  P  P21  1  0.91546200  0.77631100  0.66102200  1
  P  P22  1  0.31864100  0.91140500  0.65573600  1
  P  P23  1  0.66784500  0.66018900  0.87240700  1
  P  P24  1  0.66508200  0.66258600  0.37370200  1
  P  P25  1  0.32312400  0.76955700  0.15713000  1
  P  P26  1  0.22832600  0.68358600  0.34130300  1
  P  P27  1  0.90875700  0.32317200  0.15674000  1
  P  P28  1  0.09065100  0.67656500  0.84805200  1
  P  P29  1  0.77112200  0.32081000  0.65620800  1
  P  P30  1  0.67761500  0.23248800  0.84141600  1
  P  P31  1  0.33205300  0.33318600  0.62479200  1
  P  P32  1  0.32849500  0.34030200  0.12733600  1
  P  P33  1  0.68788700  0.08572700  0.34710400  1
  P  P34  1  0.08313100  0.23171900  0.34206000  1
  P  P35  1  0.23223500  0.08990100  0.84221500  1
  O  O36  1  0.77508700  0.01574400  0.43940100  1
  O  O37  1  0.74785700  0.92068600  0.65873400  1
  O  O38  1  0.01014200  0.74441900  0.94005500  1
  O  O39  1  0.91962700  0.74552800  0.15989200  1
  O  O40  1  0.62966100  0.88583900  0.17459100  1
  O  O41  1  0.65538400  0.81581200  0.82835100  1
  O  O42  1  0.48363600  0.89321800  0.66705500  1
  O  O43  1  0.25028500  0.99582900  0.93185900  1
  O  O44  1  0.33133500  0.92113200  0.15552600  1
  O  O45  1  0.80985200  0.66883000  0.32953700  1
  O  O46  1  0.89823900  0.62930200  0.66467700  1
  O  O47  1  0.51107300  0.80860400  0.34226600  1
  O  O48  1  0.66385200  0.65640600  0.97959400  1
  O  O49  1  0.67525600  0.64250200  0.48098100  1
  O  O50  1  0.51877400  0.65801700  0.83021700  1
  O  O51  1  0.88564400  0.48884800  0.17281700  1
  O  O52  1  0.81453300  0.51668600  0.83243100  1
  O  O53  1  0.33282700  0.74809300  0.65583700  1
  O  O54  1  0.21369900  0.78745700  0.24771800  1
  O  O55  1  0.21971300  0.77822500  0.43016000  1
  O  O56  1  0.24974600  0.74744800  0.06850000  1
  O  O57  1  0.49076500  0.62982900  0.17499000  1
  O  O58  1  0.67389800  0.50988900  0.32934300  1
  O  O59  1  0.25204300  0.67080700  0.83947600  1
  O  O60  1  0.62387000  0.48565000  0.66904000  1
  O  O61  1  0.91904400  0.33423100  0.65375900  1
  O  O62  1  0.98843400  0.79107100  0.76096600  1
  O  O63  1  0.01411600  0.78316800  0.58037200  1
  O  O64  1  0.99281400  0.23439200  0.43079900  1
  O  O65  1  0.08683500  0.66055200  0.33826300  1
  O  O66  1  0.38518000  0.53007200  0.33337800  1
  O  O67  1  0.74640700  0.33597600  0.15362300  1
  O  O68  1  0.33439200  0.48386800  0.66842100  1
  O  O69  1  0.50964900  0.37430400  0.82405800  1
  O  O70  1  0.75019300  0.25359200  0.93049000  1
  O  O71  1  0.76093800  0.23463500  0.56968200  1
  O  O72  1  0.78587000  0.22095800  0.75154800  1
  O  O73  1  0.66935200  0.25113500  0.33517300  1
  O  O74  1  0.17832100  0.48811600  0.16735100  1
  O  O75  1  0.12192300  0.50942300  0.82702900  1
  O  O76  1  0.47696100  0.34460600  0.17006700  1
  O  O77  1  0.33584600  0.34626500  0.01963300  1
  O  O78  1  0.32188300  0.35095000  0.51816100  1
  O  O79  1  0.48579400  0.18238700  0.66281700  1
  O  O80  1  0.09084600  0.38250900  0.32877300  1
  O  O81  1  0.19233900  0.32239400  0.66729600  1
  O  O82  1  0.66358100  0.08497500  0.83899300  1
  O  O83  1  0.79823500  0.98385000  0.25964800  1
  O  O84  1  0.76435200  0.00907900  0.07851900  1
  O  O85  1  0.53224100  0.08965400  0.33686100  1
  O  O86  1  0.33156300  0.18994600  0.16247700  1
  O  O87  1  0.37479300  0.11532500  0.82548400  1
  O  O88  1  0.08098900  0.24736200  0.84306400  1
  O  O89  1  0.00347000  0.24559000  0.06787000  1
  O  O90  1  0.99565700  0.21427500  0.24830400  1
  O  O91  1  0.24628200  0.08583500  0.34152100  1
  O  O92  1  0.23183000  0.00311400  0.56758100  1
  O  O93  1  0.21970400  0.99711500  0.75044000  1
