# generated using pymatgen
data_Li3V4(OF3)3
_symmetry_space_group_name_H-M   'P 1'
_cell_length_a   5.19065200
_cell_length_b   5.53048331
_cell_length_c   17.31966881
_cell_angle_alpha   88.11742537
_cell_angle_beta   97.67410158
_cell_angle_gamma   117.96601782
_symmetry_Int_Tables_number   1
_chemical_formula_structural   Li3V4(OF3)3
_chemical_formula_sum   'Li6 V8 O6 F18'
_cell_volume   434.94847521
_cell_formula_units_Z   2
loop_
 _symmetry_equiv_pos_site_id
 _symmetry_equiv_pos_as_xyz
  1  'x, y, z'
loop_
 _atom_site_type_symbol
 _atom_site_label
 _atom_site_symmetry_multiplicity
 _atom_site_fract_x
 _atom_site_fract_y
 _atom_site_fract_z
 _atom_site_occupancy
  Li  Li0  1  0.89003400  0.44580700  0.30462200  1
  Li  Li1  1  0.90271400  0.03116900  0.82021500  1
  Li  Li2  1  0.65450500  0.35868100  0.94834100  1
  Li  Li3  1  0.34220500  0.10087800  0.55169500  1
  Li  Li4  1  0.19840500  0.16707500  0.19932400  1
  Li  Li5  1  0.06205500  0.45437500  0.67436100  1
  V  V6  1  0.97303700  0.00566200  0.00485300  1
  V  V7  1  0.98791300  0.48725900  0.50095100  1
  V  V8  1  0.74824800  0.36284600  0.12421100  1
  V  V9  1  0.50667000  0.71236900  0.25020100  1
  V  V10  1  0.53724600  0.26139200  0.75222500  1
  V  V11  1  0.75895000  0.90879100  0.62653500  1
  V  V12  1  0.25243200  0.13708600  0.37152800  1
  V  V13  1  0.21670700  0.62266100  0.87234500  1
  O  O14  1  0.80252300  0.20732200  0.03346400  1
  O  O15  1  0.76665700  0.20654400  0.56511600  1
  O  O16  1  0.70399800  0.05277800  0.71795300  1
  O  O17  1  0.66778800  0.50334200  0.21418500  1
  O  O18  1  0.81137400  0.38710800  0.84716400  1
  O  O19  1  0.25081000  0.42171900  0.31131400  1
  F  F20  1  0.77066700  0.05745900  0.19382000  1
  F  F21  1  0.73130300  0.65657400  0.05059300  1
  F  F22  1  0.70691300  0.33862600  0.40199100  1
  F  F23  1  0.82288600  0.72992000  0.53668800  1
  F  F24  1  0.82821400  0.88749700  0.34450000  1
  F  F25  1  0.29734400  0.13352800  0.09834100  1
  F  F26  1  0.78278200  0.58774000  0.68769300  1
  F  F27  1  0.21484700  0.14062200  0.65297600  1
  F  F28  1  0.21197300  0.29151400  0.47267200  1
  F  F29  1  0.66660800  0.83383300  0.90118200  1
  F  F30  1  0.17919600  0.57187400  0.15743100  1
  F  F31  1  0.30433100  0.46962800  0.77705800  1
  F  F32  1  0.31327500  0.95437000  0.27967800  1
  F  F33  1  0.30211800  0.68253700  0.59576700  1
  F  F34  1  0.24468700  0.30066300  0.93326700  1
  F  F35  1  0.24647300  0.83154900  0.44603400  1
  F  F36  1  0.22729100  0.94560300  0.81091400  1
  F  F37  1  0.16707100  0.78929800  0.96315100  1
