# generated using pymatgen
data_Li5VO3F2
_symmetry_space_group_name_H-M   'P 1'
_cell_length_a   7.19500986
_cell_length_b   9.66895791
_cell_length_c   7.19661851
_cell_angle_alpha   72.51442730
_cell_angle_beta   67.80396757
_cell_angle_gamma   72.51337565
_symmetry_Int_Tables_number   1
_chemical_formula_structural   Li5VO3F2
_chemical_formula_sum   'Li20 V4 O12 F8'
_cell_volume   432.11297209
_cell_formula_units_Z   4
loop_
 _symmetry_equiv_pos_site_id
 _symmetry_equiv_pos_as_xyz
  1  'x, y, z'
loop_
 _atom_site_type_symbol
 _atom_site_label
 _atom_site_symmetry_multiplicity
 _atom_site_fract_x
 _atom_site_fract_y
 _atom_site_fract_z
 _atom_site_occupancy
  Li  Li0  1  0.24877800  0.99944400  0.24928500  1
  Li  Li1  1  0.99878000  0.49944300  0.49928500  1
  Li  Li2  1  0.49877900  0.49944300  0.99928400  1
  Li  Li3  1  0.74877700  0.99944400  0.74928400  1
  Li  Li4  1  0.19040600  0.82905200  0.68927400  1
  Li  Li5  1  0.94040700  0.32905100  0.93927100  1
  Li  Li6  1  0.44040700  0.32905000  0.43927200  1
  Li  Li7  1  0.69040600  0.82905200  0.18927400  1
  Li  Li8  1  0.56015800  0.67309800  0.55885800  1
  Li  Li9  1  0.31015800  0.17309800  0.80885800  1
  Li  Li10  1  0.81015800  0.17309700  0.30885900  1
  Li  Li11  1  0.06015900  0.67309800  0.05885800  1
  Li  Li12  1  0.90456900  0.79688000  0.40299400  1
  Li  Li13  1  0.65456600  0.29687800  0.65298900  1
  Li  Li14  1  0.15457400  0.29688000  0.15298900  1
  Li  Li15  1  0.40456900  0.79687800  0.90298600  1
  Li  Li16  1  0.84663100  0.70498400  0.84531900  1
  Li  Li17  1  0.59662800  0.20498400  0.09532300  1
  Li  Li18  1  0.09663500  0.20498600  0.59532300  1
  Li  Li19  1  0.34663100  0.70498600  0.34532500  1
  V  V20  1  0.75022300  0.50137600  0.24883400  1
  V  V21  1  0.00024100  0.00138000  0.99881700  1
  V  V22  1  0.50023800  0.00137300  0.49882900  1
  V  V23  1  0.25023800  0.50137100  0.74883200  1
  O  O24  1  0.00034500  0.50129200  0.99900500  1
  O  O25  1  0.75034800  0.00129500  0.24899900  1
  O  O26  1  0.25035400  0.00129500  0.74899400  1
  O  O27  1  0.50034000  0.50129200  0.49901100  1
  O  O28  1  0.91033300  0.86073400  0.90929200  1
  O  O29  1  0.66034900  0.36073300  0.15929900  1
  O  O30  1  0.16035200  0.36073600  0.65929700  1
  O  O31  1  0.41033100  0.86073700  0.40929500  1
  O  O32  1  0.84027900  0.64176500  0.33901900  1
  O  O33  1  0.59027300  0.14175900  0.58903600  1
  O  O34  1  0.09027600  0.14176200  0.08903400  1
  O  O35  1  0.34028100  0.64176300  0.83901600  1
  F  F36  1  0.67156800  0.82663600  0.67025500  1
  F  F37  1  0.42157000  0.32662100  0.92024300  1
  F  F38  1  0.92157000  0.32661900  0.42024300  1
  F  F39  1  0.17156900  0.82663500  0.17025500  1
  F  F40  1  0.07958200  0.67707400  0.57838400  1
  F  F41  1  0.82957900  0.17709200  0.82838200  1
  F  F42  1  0.32957800  0.17709100  0.32838300  1
  F  F43  1  0.57958100  0.67707500  0.07838400  1
