# generated using pymatgen
data_LiSnP2O7
_symmetry_space_group_name_H-M   'P 1'
_cell_length_a   5.26884700
_cell_length_b   8.48746871
_cell_length_c   14.04348438
_cell_angle_alpha   75.21783956
_cell_angle_beta   87.54027020
_cell_angle_gamma   88.50251229
_symmetry_Int_Tables_number   1
_chemical_formula_structural   LiSnP2O7
_chemical_formula_sum   'Li4 Sn4 P8 O28'
_cell_volume   606.59318088
_cell_formula_units_Z   4
loop_
 _symmetry_equiv_pos_site_id
 _symmetry_equiv_pos_as_xyz
  1  'x, y, z'
loop_
 _atom_site_type_symbol
 _atom_site_label
 _atom_site_symmetry_multiplicity
 _atom_site_fract_x
 _atom_site_fract_y
 _atom_site_fract_z
 _atom_site_occupancy
  Li  Li0  1  0.25091800  0.71743100  0.83074300  1
  Li  Li1  1  0.19822000  0.65458600  0.33560700  1
  Li  Li2  1  0.80178000  0.34541400  0.66439300  1
  Li  Li3  1  0.74908200  0.28256900  0.16925700  1
  Sn  Sn4  1  0.77546900  0.90762800  0.35467000  1
  Sn  Sn5  1  0.75470600  0.39029900  0.87956200  1
  Sn  Sn6  1  0.24529400  0.60970100  0.12043800  1
  Sn  Sn7  1  0.22453100  0.09237200  0.64533000  1
  P  P8  1  0.71202000  0.01049200  0.78985000  1
  P  P9  1  0.74344400  0.72442200  0.95624500  1
  P  P10  1  0.27409000  0.78700600  0.51429200  1
  P  P11  1  0.28802000  0.49388100  0.68600800  1
  P  P12  1  0.71198000  0.50611900  0.31399200  1
  P  P13  1  0.72591000  0.21299400  0.48570800  1
  P  P14  1  0.25655600  0.27557800  0.04375500  1
  P  P15  1  0.28798000  0.98950800  0.21015000  1
  O  O16  1  0.98175700  0.95980700  0.75578400  1
  O  O17  1  0.67741300  0.91865700  0.90317700  1
  O  O18  1  0.49904300  0.95108100  0.73224400  1
  O  O19  1  0.19640200  0.89903700  0.57911200  1
  O  O20  1  0.03040200  0.70049700  0.94764000  1
  O  O21  1  0.55471500  0.79873400  0.47687000  1
  O  O22  1  0.59277600  0.63613700  0.89365300  1
  O  O23  1  0.10936500  0.80843500  0.42318800  1
  O  O24  1  0.31802100  0.81074700  0.22003000  1
  O  O25  1  0.12823900  0.56795500  0.75510200  1
  O  O26  1  0.23032000  0.60209500  0.57165800  1
  O  O27  1  0.57217000  0.49718600  0.69556300  1
  O  O28  1  0.81946500  0.67691500  0.31752400  1
  O  O29  1  0.64060800  0.69806500  0.06177900  1
  O  O30  1  0.35939200  0.30193500  0.93822100  1
  O  O31  1  0.18053500  0.32308500  0.68247600  1
  O  O32  1  0.42783000  0.50281400  0.30443700  1
  O  O33  1  0.76968000  0.39790500  0.42834200  1
  O  O34  1  0.87176100  0.43204500  0.24489800  1
  O  O35  1  0.68197900  0.18925300  0.77997000  1
  O  O36  1  0.89063500  0.19156500  0.57681200  1
  O  O37  1  0.40722400  0.36386300  0.10634700  1
  O  O38  1  0.44528500  0.20126600  0.52313000  1
  O  O39  1  0.96959800  0.29950300  0.05236000  1
  O  O40  1  0.80359800  0.10096300  0.42088800  1
  O  O41  1  0.50095700  0.04891900  0.26775600  1
  O  O42  1  0.32258700  0.08134300  0.09682300  1
  O  O43  1  0.01824300  0.04019300  0.24421600  1
