# generated using pymatgen
data_LiMnV(P2O7)2
_symmetry_space_group_name_H-M   'P 1'
_cell_length_a   7.03505300
_cell_length_b   8.16343375
_cell_length_c   13.98293180
_cell_angle_alpha   89.89493793
_cell_angle_beta   99.86727526
_cell_angle_gamma   92.03465309
_symmetry_Int_Tables_number   1
_chemical_formula_structural   LiMnV(P2O7)2
_chemical_formula_sum   'Li3 Mn3 V3 P12 O42'
_cell_volume   790.65713508
_cell_formula_units_Z   3
loop_
 _symmetry_equiv_pos_site_id
 _symmetry_equiv_pos_as_xyz
  1  'x, y, z'
loop_
 _atom_site_type_symbol
 _atom_site_label
 _atom_site_symmetry_multiplicity
 _atom_site_fract_x
 _atom_site_fract_y
 _atom_site_fract_z
 _atom_site_occupancy
  Li  Li0  1  0.28297900  0.86327200  0.61089200  1
  Li  Li1  1  0.94789300  0.86310600  0.27661400  1
  Li  Li2  1  0.38656300  0.35803100  0.05780600  1
  Mn  Mn3  1  0.00595900  0.00699200  0.73935200  1
  Mn  Mn4  1  0.67192500  0.00686100  0.40595600  1
  Mn  Mn5  1  0.34696300  0.99293300  0.06874400  1
  V  V6  1  0.65209900  0.50582500  0.92682700  1
  V  V7  1  0.31791200  0.49387800  0.59886300  1
  V  V8  1  0.98489600  0.49539900  0.26577000  1
  P  P9  1  0.38459100  0.17507100  0.86639800  1
  P  P10  1  0.01688300  0.78091700  0.92660500  1
  P  P11  1  0.65244900  0.28626800  0.73870000  1
  P  P12  1  0.28285500  0.67856800  0.79851200  1
  P  P13  1  0.68594800  0.78128000  0.59413900  1
  P  P14  1  0.95012200  0.67938600  0.46596800  1
  P  P15  1  0.05233100  0.17641800  0.53190500  1
  P  P16  1  0.31984000  0.28745400  0.40522300  1
  P  P17  1  0.72056800  0.17707600  0.19788700  1
  P  P18  1  0.35252500  0.78165600  0.26011600  1
  P  P19  1  0.97987200  0.29070300  0.07043400  1
  P  P20  1  0.61736400  0.68201200  0.13371700  1
  O  O21  1  0.82442500  0.33927500  0.98503600  1
  O  O22  1  0.84838700  0.67905800  0.95452000  1
  O  O23  1  0.95681800  0.93212900  0.86682600  1
  O  O24  1  0.41096800  0.03831300  0.94086100  1
  O  O25  1  0.42965300  0.34484800  0.91666900  1
  O  O26  1  0.47595800  0.66239500  0.86980100  1
  O  O27  1  0.71075700  0.44015400  0.80297000  1
  O  O28  1  0.54880600  0.15221100  0.80063500  1
  O  O29  1  0.11759700  0.65239500  0.86384400  1
  O  O30  1  0.81275500  0.20019000  0.70553700  1
  O  O31  1  0.18990800  0.17487100  0.79931800  1
  O  O32  1  0.83070200  0.82527500  0.68527800  1
  O  O33  1  0.26246100  0.84410200  0.75004500  1
  O  O34  1  0.25309800  0.53513100  0.72607600  1
  O  O35  1  0.49615800  0.33601100  0.65209400  1
  O  O36  1  0.50864200  0.68651200  0.61994100  1
  O  O37  1  0.78161600  0.65264500  0.53023500  1
  O  O38  1  0.61881500  0.93212700  0.53409000  1
  O  O39  1  0.85565200  0.17261700  0.46699100  1
  O  O40  1  0.08892900  0.03863100  0.60647700  1
  O  O41  1  0.09444500  0.34761900  0.57807000  1
  O  O42  1  0.92539900  0.84443200  0.41624500  1
  O  O43  1  0.92205700  0.53554300  0.39403000  1
  O  O44  1  0.14359700  0.67205500  0.53766800  1
  O  O45  1  0.37294200  0.43941300  0.47130300  1
  O  O46  1  0.21511900  0.15007500  0.46480800  1
  O  O47  1  0.48066600  0.20223900  0.37183500  1
  O  O48  1  0.49515800  0.82764800  0.35179200  1
  O  O49  1  0.75329300  0.03883900  0.27174600  1
  O  O50  1  0.76200300  0.34769200  0.24468800  1
  O  O51  1  0.81166000  0.66947600  0.20468000  1
  O  O52  1  0.16403400  0.33805600  0.31849700  1
  O  O53  1  0.17427500  0.68967100  0.28673100  1
  O  O54  1  0.88301400  0.15038700  0.13091300  1
  O  O55  1  0.44884000  0.64894400  0.19927700  1
  O  O56  1  0.28960400  0.93121700  0.19767800  1
  O  O57  1  0.52252900  0.17649900  0.13234200  1
  O  O58  1  0.59557800  0.84825100  0.08924700  1
  O  O59  1  0.58074500  0.53736200  0.06151200  1
  O  O60  1  0.03930600  0.44127900  0.13768000  1
  O  O61  1  0.15245100  0.21429100  0.04089800  1
  O  O62  1  0.15869100  0.82184400  0.01980800  1
