# generated using pymatgen
data_LiSi2(BiO3)3
_symmetry_space_group_name_H-M   'P 1'
_cell_length_a   10.72627100
_cell_length_b   7.64721900
_cell_length_c   10.72527435
_cell_angle_alpha   89.56272128
_cell_angle_beta   90.00000000
_cell_angle_gamma   90.00000000
_symmetry_Int_Tables_number   1
_chemical_formula_structural   LiSi2(BiO3)3
_chemical_formula_sum   'Li4 Si8 Bi12 O36'
_cell_volume   879.72727087
_cell_formula_units_Z   4
loop_
 _symmetry_equiv_pos_site_id
 _symmetry_equiv_pos_as_xyz
  1  'x, y, z'
loop_
 _atom_site_type_symbol
 _atom_site_label
 _atom_site_symmetry_multiplicity
 _atom_site_fract_x
 _atom_site_fract_y
 _atom_site_fract_z
 _atom_site_occupancy
  Li  Li0  1  0.46027900  0.12597700  0.64567900  1
  Li  Li1  1  0.03972100  0.12597700  0.14567900  1
  Li  Li2  1  0.96027900  0.87402300  0.85432100  1
  Li  Li3  1  0.53972100  0.87402300  0.35432100  1
  Si  Si4  1  0.12775200  0.17517500  0.69570000  1
  Si  Si5  1  0.37224800  0.17517500  0.19570000  1
  Si  Si6  1  0.62780800  0.39546500  0.81044300  1
  Si  Si7  1  0.87219200  0.39546500  0.31044300  1
  Si  Si8  1  0.12780800  0.60453500  0.68955700  1
  Si  Si9  1  0.37219200  0.60453500  0.18955700  1
  Si  Si10  1  0.62775200  0.82482500  0.80430000  1
  Si  Si11  1  0.87224800  0.82482500  0.30430000  1
  Bi  Bi12  1  0.80235100  0.11864800  0.59072000  1
  Bi  Bi13  1  0.69764900  0.11864800  0.09072000  1
  Bi  Bi14  1  0.93588600  0.33524500  0.89787500  1
  Bi  Bi15  1  0.29943400  0.36561700  0.90930100  1
  Bi  Bi16  1  0.56411400  0.33524500  0.39787500  1
  Bi  Bi17  1  0.20056600  0.36561700  0.40930100  1
  Bi  Bi18  1  0.79943400  0.63438300  0.59069900  1
  Bi  Bi19  1  0.43588600  0.66475500  0.60212500  1
  Bi  Bi20  1  0.70056600  0.63438300  0.09069900  1
  Bi  Bi21  1  0.06411400  0.66475500  0.10212500  1
  Bi  Bi22  1  0.30235100  0.88135200  0.90928000  1
  Bi  Bi23  1  0.19764900  0.88135200  0.40928000  1
  O  O24  1  0.99675000  0.11060000  0.75940600  1
  O  O25  1  0.50325000  0.11060000  0.25940600  1
  O  O26  1  0.61565700  0.12316800  0.51996600  1
  O  O27  1  0.25126100  0.10475000  0.77200000  1
  O  O28  1  0.88434300  0.12316800  0.01996600  1
  O  O29  1  0.24873900  0.10475000  0.27200000  1
  O  O30  1  0.13495200  0.14979200  0.54409600  1
  O  O31  1  0.36504800  0.14979200  0.04409600  1
  O  O32  1  0.49580800  0.31361100  0.77370700  1
  O  O33  1  0.00419200  0.31361100  0.27370700  1
  O  O34  1  0.38646300  0.35769700  0.49792700  1
  O  O35  1  0.74870900  0.32875600  0.72667400  1
  O  O36  1  0.11353700  0.35769700  0.99792700  1
  O  O37  1  0.75129100  0.32875600  0.22667400  1
  O  O38  1  0.66502300  0.38473700  0.96019300  1
  O  O39  1  0.13073000  0.38950900  0.72371600  1
  O  O40  1  0.83497700  0.38473700  0.46019300  1
  O  O41  1  0.36927000  0.38950900  0.22371600  1
  O  O42  1  0.63073000  0.61049100  0.77628400  1
  O  O43  1  0.16502300  0.61526300  0.53980700  1
  O  O44  1  0.86927000  0.61049100  0.27628400  1
  O  O45  1  0.33497700  0.61526300  0.03980700  1
  O  O46  1  0.24870900  0.67124400  0.77332600  1
  O  O47  1  0.88646300  0.64230300  0.00207300  1
  O  O48  1  0.25129100  0.67124400  0.27332600  1
  O  O49  1  0.61353700  0.64230300  0.50207300  1
  O  O50  1  0.99580800  0.68638900  0.72629300  1
  O  O51  1  0.50419200  0.68638900  0.22629300  1
  O  O52  1  0.63495200  0.85020800  0.95590400  1
  O  O53  1  0.86504800  0.85020800  0.45590400  1
  O  O54  1  0.75126100  0.89525000  0.72800000  1
  O  O55  1  0.11565700  0.87683200  0.98003400  1
  O  O56  1  0.74873900  0.89525000  0.22800000  1
  O  O57  1  0.38434300  0.87683200  0.48003400  1
  O  O58  1  0.49675000  0.88940000  0.74059400  1
  O  O59  1  0.00325000  0.88940000  0.24059400  1
