# generated using pymatgen
data_Li3P3(WO6)2
_symmetry_space_group_name_H-M   'P 1'
_cell_length_a   9.06925200
_cell_length_b   8.70716700
_cell_length_c   15.12459742
_cell_angle_alpha   55.14715072
_cell_angle_beta   90.00000000
_cell_angle_gamma   90.00000000
_symmetry_Int_Tables_number   1
_chemical_formula_structural   Li3P3(WO6)2
_chemical_formula_sum   'Li12 P12 W8 O48'
_cell_volume   980.11165686
_cell_formula_units_Z   4
loop_
 _symmetry_equiv_pos_site_id
 _symmetry_equiv_pos_as_xyz
  1  'x, y, z'
loop_
 _atom_site_type_symbol
 _atom_site_label
 _atom_site_symmetry_multiplicity
 _atom_site_fract_x
 _atom_site_fract_y
 _atom_site_fract_z
 _atom_site_occupancy
  Li  Li0  1  0.51351000  0.58537000  0.34811100  1
  Li  Li1  1  0.08675400  0.22862400  0.68571400  1
  Li  Li2  1  0.78270900  0.64419500  0.17852300  1
  Li  Li3  1  0.28270900  0.35580500  0.32147700  1
  Li  Li4  1  0.58675400  0.77137600  0.81428600  1
  Li  Li5  1  0.01351000  0.41463000  0.15188900  1
  Li  Li6  1  0.98649000  0.58537000  0.84811100  1
  Li  Li7  1  0.41324600  0.22862400  0.18571400  1
  Li  Li8  1  0.71729100  0.64419500  0.67852300  1
  Li  Li9  1  0.21729100  0.35580500  0.82147700  1
  Li  Li10  1  0.91324600  0.77137600  0.31428600  1
  Li  Li11  1  0.48649000  0.41463000  0.65188900  1
  P  P12  1  0.25187300  0.46593200  0.49012600  1
  P  P13  1  0.38025700  0.04524100  0.84426600  1
  P  P14  1  0.10913100  0.73373600  0.15137600  1
  P  P15  1  0.60913100  0.26626400  0.34862400  1
  P  P16  1  0.88025700  0.95475900  0.65573400  1
  P  P17  1  0.75187300  0.53406800  0.00987400  1
  P  P18  1  0.24812700  0.46593200  0.99012600  1
  P  P19  1  0.11974300  0.04524100  0.34426600  1
  P  P20  1  0.39086900  0.73373600  0.65137600  1
  P  P21  1  0.89086900  0.26626400  0.84862400  1
  P  P22  1  0.61974300  0.95475900  0.15573400  1
  P  P23  1  0.74812700  0.53406800  0.50987400  1
  W  W24  1  0.03060700  0.86215400  0.89429900  1
  W  W25  1  0.46365100  0.64774200  0.10827900  1
  W  W26  1  0.96365100  0.35225800  0.39172100  1
  W  W27  1  0.53060700  0.13784600  0.60570100  1
  W  W28  1  0.46939300  0.86215400  0.39429900  1
  W  W29  1  0.03634900  0.64774200  0.60827900  1
  W  W30  1  0.53634900  0.35225800  0.89172100  1
  W  W31  1  0.96939300  0.13784600  0.10570100  1
  O  O32  1  0.86984200  0.50702100  0.44875700  1
  O  O33  1  0.88462600  0.05858400  0.89511000  1
  O  O34  1  0.66872600  0.35208400  0.59897000  1
  O  O35  1  0.57680600  0.74984900  0.19283000  1
  O  O36  1  0.36151700  0.32880500  0.58002600  1
  O  O37  1  0.99659900  0.63424300  0.24809700  1
  O  O38  1  0.21118200  0.06454200  0.81975000  1
  O  O39  1  0.40621600  0.90522900  0.96390600  1
  O  O40  1  0.26088800  0.63319600  0.19103300  1
  O  O41  1  0.18654900  0.37014100  0.43820100  1
  O  O42  1  0.47224200  0.99448100  0.77768300  1
  O  O43  1  0.04479100  0.69460700  0.06972300  1
  O  O44  1  0.54479100  0.30539300  0.43027700  1
  O  O45  1  0.97224200  0.00551900  0.72231700  1
  O  O46  1  0.68654900  0.62985900  0.06179900  1
  O  O47  1  0.76088800  0.36680400  0.30896700  1
  O  O48  1  0.90621600  0.09477100  0.53609400  1
  O  O49  1  0.71118200  0.93545800  0.68025000  1
  O  O50  1  0.49659900  0.36575700  0.25190300  1
  O  O51  1  0.86151700  0.67119500  0.91997400  1
  O  O52  1  0.07680600  0.25015100  0.30717000  1
  O  O53  1  0.16872600  0.64791600  0.90103000  1
  O  O54  1  0.38462600  0.94141600  0.60489000  1
  O  O55  1  0.36984200  0.49297900  0.05124300  1
  O  O56  1  0.63015800  0.50702100  0.94875700  1
  O  O57  1  0.61537400  0.05858400  0.39511000  1
  O  O58  1  0.83127400  0.35208400  0.09897000  1
  O  O59  1  0.92319400  0.74984900  0.69283000  1
  O  O60  1  0.13848300  0.32880500  0.08002600  1
  O  O61  1  0.50340100  0.63424300  0.74809700  1
  O  O62  1  0.28881800  0.06454200  0.31975000  1
  O  O63  1  0.09378400  0.90522900  0.46390600  1
  O  O64  1  0.23911200  0.63319600  0.69103300  1
  O  O65  1  0.31345100  0.37014100  0.93820100  1
  O  O66  1  0.02775800  0.99448100  0.27768300  1
  O  O67  1  0.45520900  0.69460700  0.56972300  1
  O  O68  1  0.95520900  0.30539300  0.93027700  1
  O  O69  1  0.52775800  0.00551900  0.22231700  1
  O  O70  1  0.81345100  0.62985900  0.56179900  1
  O  O71  1  0.73911200  0.36680400  0.80896700  1
  O  O72  1  0.59378400  0.09477100  0.03609400  1
  O  O73  1  0.78881800  0.93545800  0.18025000  1
  O  O74  1  0.00340100  0.36575700  0.75190300  1
  O  O75  1  0.63848300  0.67119500  0.41997400  1
  O  O76  1  0.42319400  0.25015100  0.80717000  1
  O  O77  1  0.33127400  0.64791600  0.40103000  1
  O  O78  1  0.11537400  0.94141600  0.10489000  1
  O  O79  1  0.13015800  0.49297900  0.55124300  1
