# generated using pymatgen
data_LiV2OF5
_symmetry_space_group_name_H-M   'P 1'
_cell_length_a   10.39453698
_cell_length_b   10.44604709
_cell_length_c   11.05273630
_cell_angle_alpha   118.44633149
_cell_angle_beta   117.81700561
_cell_angle_gamma   60.42895264
_symmetry_Int_Tables_number   1
_chemical_formula_structural   LiV2OF5
_chemical_formula_sum   'Li8 V16 O8 F40'
_cell_volume   874.68659843
_cell_formula_units_Z   8
loop_
 _symmetry_equiv_pos_site_id
 _symmetry_equiv_pos_as_xyz
  1  'x, y, z'
loop_
 _atom_site_type_symbol
 _atom_site_label
 _atom_site_symmetry_multiplicity
 _atom_site_fract_x
 _atom_site_fract_y
 _atom_site_fract_z
 _atom_site_occupancy
  Li  Li0  1  0.11124606  0.11698110  0.83144526  1
  Li  Li1  1  0.14978819  0.13499650  0.42729467  1
  Li  Li2  1  0.14544170  0.62752232  0.41450100  1
  Li  Li3  1  0.60970372  0.11641389  0.83094005  1
  Li  Li4  1  0.64757590  0.13089420  0.41828173  1
  Li  Li5  1  0.61205725  0.61935059  0.83493444  1
  Li  Li6  1  0.35224297  0.85775120  0.07430172  1
  Li  Li7  1  0.65348559  0.63234902  0.42567349  1
  V  V8  1  0.00989134  0.49235234  0.99534538  1
  V  V9  1  0.23982924  0.26147556  0.76259542  1
  V  V10  1  0.00790507  0.99160460  0.99737027  1
  V  V11  1  0.23735472  0.75227588  0.75502987  1
  V  V12  1  0.25636248  0.26013530  0.25470475  1
  V  V13  1  0.51113409  0.48586081  0.99481993  1
  V  V14  1  0.74193626  0.25598492  0.76062420  1
  V  V15  1  0.48735232  0.49464237  0.48912161  1
  V  V16  1  0.25315188  0.75704667  0.25254189  1
  V  V17  1  0.51192708  0.99285121  0.99428140  1
  V  V18  1  0.74644069  0.75321702  0.76198880  1
  V  V19  1  0.48671996  0.99306381  0.49035232  1
  V  V20  1  0.75584487  0.25892905  0.25360563  1
  V  V21  1  0.98692343  0.49378346  0.49047931  1
  V  V22  1  0.75532963  0.75690017  0.25320162  1
  V  V23  1  0.98547374  0.99415851  0.48785314  1
  O  O24  1  0.12281053  0.31609106  0.87585920  1
  O  O25  1  0.13487386  0.83267923  0.88683074  1
  O  O26  1  0.31722518  0.43193151  0.37388873  1
  O  O27  1  0.62564827  0.31467584  0.87557177  1
  O  O28  1  0.31676833  0.93061073  0.37263977  1
  O  O29  1  0.62345734  0.81800932  0.87529847  1
  O  O30  1  0.81641393  0.43146352  0.37415621  1
  O  O31  1  0.81355090  0.93219530  0.37277241  1
  F  F32  1  0.16810233  0.07351988  0.62290570  1
  F  F33  1  0.07307245  0.36547189  0.61491939  1
  F  F34  1  0.44347047  0.12900323  0.87233257  1
  F  F35  1  0.13157151  0.29856776  0.37229913  1
  F  F36  1  0.31796464  0.44058831  0.87628542  1
  F  F37  1  0.16986391  0.57263328  0.61134967  1
  F  F38  1  0.36517703  0.17850424  0.62344650  1
  F  F39  1  0.19774790  0.06156848  0.13207418  1
  F  F40  1  0.06628582  0.37748020  0.12436832  1
  F  F41  1  0.06766015  0.88277138  0.62733611  1
  F  F42  1  0.45018432  0.11979269  0.37632345  1
  F  F43  1  0.44257706  0.63425728  0.87971363  1
  F  F44  1  0.13165125  0.79916813  0.37699381  1
  F  F45  1  0.31055809  0.94438270  0.87456345  1
  F  F46  1  0.66900647  0.07121637  0.62251862  1
  F  F47  1  0.36640605  0.67903386  0.62553424  1
  F  F48  1  0.18581529  0.57376405  0.13219231  1
  F  F49  1  0.37307256  0.17330356  0.11813908  1
  F  F50  1  0.06520385  0.87914114  0.12738927  1
  F  F51  1  0.57240554  0.37632715  0.62555573  1
  F  F52  1  0.44876201  0.62208749  0.37563386  1
  F  F53  1  0.94282909  0.13155223  0.87787986  1
  F  F54  1  0.63255888  0.29977708  0.37616044  1
  F  F55  1  0.80397851  0.44843525  0.87315218  1
  F  F56  1  0.66858766  0.57114489  0.62331521  1
  F  F57  1  0.86458160  0.17886040  0.62406120  1
  F  F58  1  0.37589425  0.68881986  0.11982240  1
  F  F59  1  0.68065066  0.07305563  0.13192718  1
  F  F60  1  0.56500773  0.37576787  0.12795247  1
  F  F61  1  0.57334001  0.87708153  0.62819939  1
  F  F62  1  0.94994908  0.11919601  0.37515535  1
  F  F63  1  0.93487694  0.62798968  0.87728854  1
  F  F64  1  0.62896922  0.79994889  0.37281004  1
  F  F65  1  0.80507243  0.94849396  0.87164813  1
  F  F66  1  0.85293003  0.68046563  0.61362828  1
  F  F67  1  0.67847121  0.57418844  0.13025349  1
  F  F68  1  0.87466305  0.17674599  0.11984651  1
  F  F69  1  0.55315439  0.87323513  0.12154738  1
  F  F70  1  0.94749738  0.62184173  0.37618735  1
  F  F71  1  0.87226370  0.67621969  0.11999392  1
