# generated using pymatgen
data_LiPWO5
_symmetry_space_group_name_H-M   'P 1'
_cell_length_a   7.53937714
_cell_length_b   7.53937714
_cell_length_c   10.86446164
_cell_angle_alpha   68.40581396
_cell_angle_beta   68.40581396
_cell_angle_gamma   42.43914429
_symmetry_Int_Tables_number   1
_chemical_formula_structural   LiPWO5
_chemical_formula_sum   'Li4 P4 W4 O20'
_cell_volume   382.88162152
_cell_formula_units_Z   4
loop_
 _symmetry_equiv_pos_site_id
 _symmetry_equiv_pos_as_xyz
  1  'x, y, z'
loop_
 _atom_site_type_symbol
 _atom_site_label
 _atom_site_symmetry_multiplicity
 _atom_site_fract_x
 _atom_site_fract_y
 _atom_site_fract_z
 _atom_site_occupancy
  Li  Li0  1  0.50000000  0.00000000  0.50000000  1
  Li  Li1  1  0.50000000  0.50000000  0.50000000  1
  Li  Li2  1  0.50000000  0.50000000  0.00000000  1
  Li  Li3  1  0.00000000  0.50000000  0.00000000  1
  P  P4  1  0.88111000  0.86906800  0.68903100  1
  P  P5  1  0.11889000  0.13093200  0.31096900  1
  P  P6  1  0.86906800  0.88111000  0.18903100  1
  P  P7  1  0.13093200  0.11889000  0.81096900  1
  W  W8  1  0.50598500  0.49401500  0.75000000  1
  W  W9  1  0.00000000  0.50000000  0.50000000  1
  W  W10  1  0.49401500  0.50598500  0.25000000  1
  W  W11  1  0.50000000  0.00000000  0.00000000  1
  O  O12  1  0.20620400  0.18861400  0.66059400  1
  O  O13  1  0.82815800  0.80207900  0.59598700  1
  O  O14  1  0.34212900  0.40863000  0.42342200  1
  O  O15  1  0.18324000  0.70516500  0.65728700  1
  O  O16  1  0.70580200  0.17230200  0.65521100  1
  O  O17  1  0.65787100  0.59137000  0.57657800  1
  O  O18  1  0.79379600  0.81138600  0.33940600  1
  O  O19  1  0.17184200  0.19792100  0.40401300  1
  O  O20  1  0.17230200  0.70580200  0.15521100  1
  O  O21  1  0.29419800  0.82769800  0.34478900  1
  O  O22  1  0.70516500  0.18324000  0.15728700  1
  O  O23  1  0.81676000  0.29483500  0.34271300  1
  O  O24  1  0.18861400  0.20620400  0.16059400  1
  O  O25  1  0.80207900  0.82815800  0.09598700  1
  O  O26  1  0.29483500  0.81676000  0.84271300  1
  O  O27  1  0.82769800  0.29419800  0.84478900  1
  O  O28  1  0.59137000  0.65787100  0.07657800  1
  O  O29  1  0.40863000  0.34212900  0.92342200  1
  O  O30  1  0.19792100  0.17184200  0.90401300  1
  O  O31  1  0.81138600  0.79379600  0.83940600  1
