# generated using pymatgen
data_Li2AlCoO4
_symmetry_space_group_name_H-M   'P 1'
_cell_length_a   10.84848000
_cell_length_b   5.12573700
_cell_length_c   8.16380999
_cell_angle_alpha   51.09552762
_cell_angle_beta   90.00000000
_cell_angle_gamma   90.00000000
_symmetry_Int_Tables_number   1
_chemical_formula_structural   Li2AlCoO4
_chemical_formula_sum   'Li8 Al4 Co4 O16'
_cell_volume   353.26942330
_cell_formula_units_Z   4
loop_
 _symmetry_equiv_pos_site_id
 _symmetry_equiv_pos_as_xyz
  1  'x, y, z'
loop_
 _atom_site_type_symbol
 _atom_site_label
 _atom_site_symmetry_multiplicity
 _atom_site_fract_x
 _atom_site_fract_y
 _atom_site_fract_z
 _atom_site_occupancy
  Li  Li0  1  0.16547100  0.31982200  0.99026300  1
  Li  Li1  1  0.92139400  0.53694700  0.75737300  1
  Li  Li2  1  0.42139400  0.46305300  0.74262700  1
  Li  Li3  1  0.66547100  0.68017800  0.50973700  1
  Li  Li4  1  0.33452900  0.31982200  0.49026300  1
  Li  Li5  1  0.57860600  0.53694700  0.25737300  1
  Li  Li6  1  0.07860600  0.46305300  0.24262700  1
  Li  Li7  1  0.83452900  0.68017800  0.00973700  1
  Al  Al8  1  0.58860000  0.92932100  0.75806600  1
  Al  Al9  1  0.08860000  0.07067900  0.74193400  1
  Al  Al10  1  0.91140000  0.92932100  0.25806600  1
  Al  Al11  1  0.41140000  0.07067900  0.24193400  1
  Co  Co12  1  0.33342700  0.82501600  0.99150800  1
  Co  Co13  1  0.83342700  0.17498400  0.50849200  1
  Co  Co14  1  0.16657300  0.82501600  0.49150800  1
  Co  Co15  1  0.66657300  0.17498400  0.00849200  1
  O  O16  1  0.66493200  0.83236400  0.98270500  1
  O  O17  1  0.16894100  0.73754000  0.97421100  1
  O  O18  1  0.93260500  0.96109600  0.74702700  1
  O  O19  1  0.59232700  0.56955500  0.77045600  1
  O  O20  1  0.09232700  0.43044500  0.72954400  1
  O  O21  1  0.43260500  0.03890400  0.75297300  1
  O  O22  1  0.66894100  0.26246000  0.52578900  1
  O  O23  1  0.16493200  0.16763600  0.51729500  1
  O  O24  1  0.83506800  0.83236400  0.48270500  1
  O  O25  1  0.33105900  0.73754000  0.47421100  1
  O  O26  1  0.56739500  0.96109600  0.24702700  1
  O  O27  1  0.90767300  0.56955500  0.27045600  1
  O  O28  1  0.40767300  0.43044500  0.22954400  1
  O  O29  1  0.06739500  0.03890400  0.25297300  1
  O  O30  1  0.83105900  0.26246000  0.02578900  1
  O  O31  1  0.33506800  0.16763600  0.01729500  1
