# generated using pymatgen
data_LiVOF2
_symmetry_space_group_name_H-M   'P 1'
_cell_length_a   5.60799100
_cell_length_b   5.64447697
_cell_length_c   23.43864976
_cell_angle_alpha   89.78660217
_cell_angle_beta   89.88773627
_cell_angle_gamma   60.23060882
_symmetry_Int_Tables_number   1
_chemical_formula_structural   LiVOF2
_chemical_formula_sum   'Li12 V12 O12 F24'
_cell_volume   644.01463235
_cell_formula_units_Z   12
loop_
 _symmetry_equiv_pos_site_id
 _symmetry_equiv_pos_as_xyz
  1  'x, y, z'
loop_
 _atom_site_type_symbol
 _atom_site_label
 _atom_site_symmetry_multiplicity
 _atom_site_fract_x
 _atom_site_fract_y
 _atom_site_fract_z
 _atom_site_occupancy
  Li  Li0  1  0.99287400  0.67255300  0.62513200  1
  Li  Li1  1  0.32264600  0.00957700  0.62668300  1
  Li  Li2  1  0.33655500  0.99288800  0.12394200  1
  Li  Li3  1  0.35060300  0.66589100  0.37314500  1
  Li  Li4  1  0.33381600  0.66663800  0.87504200  1
  Li  Li5  1  0.99304900  0.33249100  0.87507500  1
  Li  Li6  1  0.99663200  0.66019200  0.12399200  1
  Li  Li7  1  0.67239700  0.33233200  0.12366500  1
  Li  Li8  1  0.65994600  0.34131100  0.62627700  1
  Li  Li9  1  0.65934700  0.99520400  0.87559400  1
  Li  Li10  1  0.67484200  0.99672500  0.37355100  1
  Li  Li11  1  0.00630400  0.33161000  0.37404900  1
  V  V12  1  0.68109200  0.66719900  0.99683300  1
  V  V13  1  0.66754900  0.64700700  0.24410500  1
  V  V14  1  0.00111500  0.98390800  0.73656500  1
  V  V15  1  0.66940700  0.70012500  0.73921000  1
  V  V16  1  0.64863400  0.68462200  0.50049800  1
  V  V17  1  0.31866000  0.34956700  0.51450900  1
  V  V18  1  0.33569100  0.36365500  0.26172800  1
  V  V19  1  0.00393500  0.98151200  0.23530900  1
  V  V20  1  0.32762000  0.32191700  0.76202000  1
  V  V21  1  0.34672200  0.33385300  0.01452900  1
  V  V22  1  0.96554700  0.00200200  0.98835500  1
  V  V23  1  0.03373600  0.96656200  0.48844000  1
  O  O24  1  0.70357900  0.97769200  0.78420500  1
  O  O25  1  0.60899900  0.02928000  0.96470700  1
  O  O26  1  0.98135700  0.69256600  0.03378800  1
  O  O27  1  0.01625100  0.62601400  0.21649500  1
  O  O28  1  0.32218800  0.98604300  0.53544600  1
  O  O29  1  0.32689700  0.03572500  0.71450200  1
  O  O30  1  0.32226600  0.71875000  0.28429900  1
  O  O31  1  0.36869800  0.61093700  0.46530700  1
  O  O32  1  0.70499800  0.32878800  0.03288200  1
  O  O33  1  0.96746400  0.70641800  0.53371700  1
  O  O34  1  0.64251200  0.33557000  0.21478400  1
  O  O35  1  0.03878200  0.62500500  0.71395400  1
  F  F36  1  0.65839900  0.67074100  0.63811400  1
  F  F37  1  0.68545200  0.66494400  0.37709500  1
  F  F38  1  0.01035200  0.99531800  0.39871900  1
  F  F39  1  0.00786800  0.98995800  0.14557600  1
  F  F40  1  0.66046500  0.66847500  0.13068100  1
  F  F41  1  0.66775500  0.65714700  0.88592200  1
  F  F42  1  0.98518400  0.30073300  0.28958000  1
  F  F43  1  0.33033500  0.70721100  0.78931700  1
  F  F44  1  0.01528900  0.35238600  0.46143200  1
  F  F45  1  0.34315700  0.63129600  0.96043500  1
  F  F46  1  0.71809800  0.31210500  0.54034000  1
  F  F47  1  0.62353900  0.35717500  0.71283000  1
  F  F48  1  0.33814600  0.32268100  0.10310000  1
  F  F49  1  0.32161900  0.33873000  0.85107500  1
  F  F50  1  0.99587800  0.99926400  0.89697900  1
  F  F51  1  0.98208300  0.01040200  0.64494500  1
  F  F52  1  0.33122600  0.34245600  0.60314200  1
  F  F53  1  0.34021600  0.33397900  0.35174400  1
  F  F54  1  0.70265700  0.97280700  0.28862600  1
  F  F55  1  0.62102800  0.03713300  0.46031100  1
  F  F56  1  0.95455200  0.32735100  0.78880100  1
  F  F57  1  0.04122100  0.33608100  0.96010200  1
  F  F58  1  0.31103300  0.96660900  0.03842800  1
  F  F59  1  0.35174100  0.03288800  0.21037600  1
