# generated using pymatgen
data_Li3Cr(BO3)2
_symmetry_space_group_name_H-M   'P 1'
_cell_length_a   6.03959600
_cell_length_b   9.09961000
_cell_length_c   9.43584609
_cell_angle_alpha   64.85283541
_cell_angle_beta   90.00000000
_cell_angle_gamma   90.00000000
_symmetry_Int_Tables_number   1
_chemical_formula_structural   Li3Cr(BO3)2
_chemical_formula_sum   'Li12 Cr4 B8 O24'
_cell_volume   469.42403460
_cell_formula_units_Z   4
loop_
 _symmetry_equiv_pos_site_id
 _symmetry_equiv_pos_as_xyz
  1  'x, y, z'
loop_
 _atom_site_type_symbol
 _atom_site_label
 _atom_site_symmetry_multiplicity
 _atom_site_fract_x
 _atom_site_fract_y
 _atom_site_fract_z
 _atom_site_occupancy
  Li  Li0  1  0.28777400  0.86590800  0.92729800  1
  Li  Li1  1  0.06554300  0.71320800  0.81494900  1
  Li  Li2  1  0.21222600  0.86590800  0.42729800  1
  Li  Li3  1  0.43445700  0.71320800  0.31494900  1
  Li  Li4  1  0.74855500  0.62049600  0.51359500  1
  Li  Li5  1  0.24855500  0.37950400  0.98640500  1
  Li  Li6  1  0.75144500  0.62049600  0.01359500  1
  Li  Li7  1  0.25144500  0.37950400  0.48640500  1
  Li  Li8  1  0.56554300  0.28679200  0.68505100  1
  Li  Li9  1  0.78777400  0.13409200  0.57270200  1
  Li  Li10  1  0.93445700  0.28679200  0.18505100  1
  Li  Li11  1  0.71222600  0.13409200  0.07270200  1
  Cr  Cr12  1  0.96621700  0.76743800  0.21892500  1
  Cr  Cr13  1  0.46621700  0.23256200  0.28107500  1
  Cr  Cr14  1  0.53378300  0.76743800  0.71892500  1
  Cr  Cr15  1  0.03378300  0.23256200  0.78107500  1
  B  B16  1  0.71451700  0.94967000  0.91963300  1
  B  B17  1  0.78548300  0.94967000  0.41963300  1
  B  B18  1  0.33977500  0.54668600  0.68550300  1
  B  B19  1  0.83977500  0.45331400  0.81449700  1
  B  B20  1  0.16022500  0.54668600  0.18550300  1
  B  B21  1  0.66022500  0.45331400  0.31449700  1
  B  B22  1  0.21451700  0.05033000  0.58036700  1
  B  B23  1  0.28548300  0.05033000  0.08036700  1
  O  O24  1  0.60747200  0.82356700  0.90144000  1
  O  O25  1  0.25557300  0.90184500  0.70498600  1
  O  O26  1  0.73116400  0.93277500  0.56841400  1
  O  O27  1  0.89252800  0.82356700  0.40144000  1
  O  O28  1  0.24442700  0.90184500  0.20498600  1
  O  O29  1  0.79091800  0.60084800  0.81294700  1
  O  O30  1  0.76883600  0.93277500  0.06841400  1
  O  O31  1  0.31825900  0.57711700  0.81708400  1
  O  O32  1  0.43337400  0.67790600  0.55690400  1
  O  O33  1  0.70908200  0.60084800  0.31294700  1
  O  O34  1  0.93337400  0.32209400  0.94309600  1
  O  O35  1  0.18174100  0.57711700  0.31708400  1
  O  O36  1  0.06662600  0.67790600  0.05690400  1
  O  O37  1  0.81825900  0.42288300  0.68291600  1
  O  O38  1  0.29091800  0.39915200  0.68705300  1
  O  O39  1  0.56662600  0.32209400  0.44309600  1
  O  O40  1  0.68174100  0.42288300  0.18291600  1
  O  O41  1  0.23116400  0.06722500  0.93158600  1
  O  O42  1  0.20908200  0.39915200  0.18705300  1
  O  O43  1  0.75557300  0.09815500  0.79501400  1
  O  O44  1  0.10747200  0.17643300  0.59856000  1
  O  O45  1  0.26883600  0.06722500  0.43158600  1
  O  O46  1  0.74442700  0.09815500  0.29501400  1
  O  O47  1  0.39252800  0.17643300  0.09856000  1
