# generated using pymatgen
data_RbLiMn3O4
_symmetry_space_group_name_H-M   'P 1'
_cell_length_a   6.29675700
_cell_length_b   8.11884721
_cell_length_c   8.12093197
_cell_angle_alpha   96.73893192
_cell_angle_beta   100.57293078
_cell_angle_gamma   101.20969772
_symmetry_Int_Tables_number   1
_chemical_formula_structural   RbLiMn3O4
_chemical_formula_sum   'Rb3 Li3 Mn9 O12'
_cell_volume   395.25469337
_cell_formula_units_Z   3
loop_
 _symmetry_equiv_pos_site_id
 _symmetry_equiv_pos_as_xyz
  1  'x, y, z'
loop_
 _atom_site_type_symbol
 _atom_site_label
 _atom_site_symmetry_multiplicity
 _atom_site_fract_x
 _atom_site_fract_y
 _atom_site_fract_z
 _atom_site_occupancy
  Rb  Rb0  1  0.00363000  0.33024000  0.33384400  1
  Rb  Rb1  1  0.00045300  0.99170700  0.00083200  1
  Rb  Rb2  1  0.99395900  0.67023900  0.67282200  1
  Li  Li3  1  0.43813700  0.14852200  0.32972000  1
  Li  Li4  1  0.55909800  0.84897800  0.66948300  1
  Li  Li5  1  0.81625000  0.58117100  0.02718000  1
  Mn  Mn6  1  0.55386400  0.18975400  0.00658900  1
  Mn  Mn7  1  0.79541700  0.23397900  0.68773400  1
  Mn  Mn8  1  0.19712100  0.08530200  0.63654500  1
  Mn  Mn9  1  0.17519600  0.42480800  0.97406800  1
  Mn  Mn10  1  0.45413600  0.49172900  0.67257700  1
  Mn  Mn11  1  0.55623400  0.51323500  0.32948500  1
  Mn  Mn12  1  0.80030200  0.91114200  0.36155100  1
  Mn  Mn13  1  0.18854600  0.75753200  0.30862900  1
  Mn  Mn14  1  0.46120300  0.81359100  0.99510400  1
  O  O15  1  0.82931500  0.32989400  0.94643800  1
  O  O16  1  0.61615700  0.02255400  0.18834100  1
  O  O17  1  0.61357900  0.34989000  0.51826800  1
  O  O18  1  0.63352100  0.68324100  0.85915800  1
  O  O19  1  0.16126400  0.00760200  0.37865600  1
  O  O20  1  0.16462500  0.33840800  0.71490300  1
  O  O21  1  0.83474400  0.66216400  0.28236000  1
  O  O22  1  0.83756400  0.99074400  0.62057200  1
  O  O23  1  0.36677800  0.31423200  0.14308000  1
  O  O24  1  0.38404800  0.64853500  0.47874300  1
  O  O25  1  0.38903000  0.98348800  0.81245100  1
  O  O26  1  0.17583100  0.67732300  0.05086800  1
