# generated using pymatgen
data_Li(FeO2)2
_symmetry_space_group_name_H-M   'P 1'
_cell_length_a   8.31305860
_cell_length_b   8.32581125
_cell_length_c   8.31128026
_cell_angle_alpha   89.93491775
_cell_angle_beta   90.15608456
_cell_angle_gamma   89.99764588
_symmetry_Int_Tables_number   1
_chemical_formula_structural   Li(FeO2)2
_chemical_formula_sum   'Li8 Fe16 O32'
_cell_volume   575.24577569
_cell_formula_units_Z   8
loop_
 _symmetry_equiv_pos_site_id
 _symmetry_equiv_pos_as_xyz
  1  'x, y, z'
loop_
 _atom_site_type_symbol
 _atom_site_label
 _atom_site_symmetry_multiplicity
 _atom_site_fract_x
 _atom_site_fract_y
 _atom_site_fract_z
 _atom_site_occupancy
  Li  Li0  1  0.12081800  0.87439200  0.37526300  1
  Li  Li1  1  0.25332200  0.75133400  0.74490600  1
  Li  Li2  1  0.24935500  0.25148400  0.24469400  1
  Li  Li3  1  0.37633700  0.12330600  0.87892500  1
  Li  Li4  1  0.62308900  0.62629100  0.62068100  1
  Li  Li5  1  0.75488900  0.74881600  0.25174500  1
  Li  Li6  1  0.75195300  0.24928000  0.74772800  1
  Li  Li7  1  0.87888600  0.37443700  0.12512000  1
  Fe  Fe8  1  0.99763300  0.50172200  0.49891900  1
  Fe  Fe9  1  0.11979400  0.62013900  0.12268600  1
  Fe  Fe10  1  0.11955900  0.37869200  0.88064700  1
  Fe  Fe11  1  0.12566400  0.12096800  0.62202600  1
  Fe  Fe12  1  0.37372700  0.88129700  0.12395300  1
  Fe  Fe13  1  0.37799900  0.62034100  0.37862100  1
  Fe  Fe14  1  0.37994700  0.37721700  0.62511400  1
  Fe  Fe15  1  0.49710000  0.49755600  0.00382900  1
  Fe  Fe16  1  0.50128100  0.99522800  0.50348200  1
  Fe  Fe17  1  0.62188600  0.87967300  0.87998900  1
  Fe  Fe18  1  0.62269300  0.12225300  0.12350100  1
  Fe  Fe19  1  0.62263000  0.37735900  0.37808300  1
  Fe  Fe20  1  0.87313600  0.62046800  0.87718100  1
  Fe  Fe21  1  0.87663800  0.87932900  0.62102900  1
  Fe  Fe22  1  0.87578400  0.12294400  0.37867100  1
  Fe  Fe23  1  0.99773000  0.00335500  0.00252900  1
  O  O24  1  0.09530200  0.13036000  0.38271600  1
  O  O25  1  0.09723800  0.88662000  0.62704200  1
  O  O26  1  0.12186300  0.61015700  0.89234600  1
  O  O27  1  0.12504600  0.39434000  0.10473500  1
  O  O28  1  0.12185600  0.14417400  0.87197800  1
  O  O29  1  0.12953500  0.36910400  0.63720500  1
  O  O30  1  0.13949700  0.61945500  0.35795700  1
  O  O31  1  0.13450200  0.86152100  0.12041600  1
  O  O32  1  0.36271600  0.13104300  0.61726900  1
  O  O33  1  0.35915800  0.37679400  0.86542100  1
  O  O34  1  0.36064800  0.62967600  0.13862000  1
  O  O35  1  0.38298500  0.85410400  0.36667400  1
  O  O36  1  0.37333600  0.61456400  0.59698400  1
  O  O37  1  0.39041100  0.39025600  0.37867100  1
  O  O38  1  0.40189300  0.11406000  0.12973300  1
  O  O39  1  0.40345200  0.87355400  0.88524300  1
  O  O40  1  0.61529600  0.37523400  0.59904200  1
  O  O41  1  0.60346300  0.60254400  0.36802500  1
  O  O42  1  0.62244800  0.89065900  0.10973100  1
  O  O43  1  0.62837900  0.10572800  0.89779900  1
  O  O44  1  0.62405600  0.35751500  0.13911900  1
  O  O45  1  0.63631900  0.13554300  0.36484100  1
  O  O46  1  0.64173900  0.87806900  0.64499600  1
  O  O47  1  0.63437000  0.63552100  0.88478600  1
  O  O48  1  0.85634600  0.36153000  0.37710000  1
  O  O49  1  0.85847500  0.12196400  0.14336100  1
  O  O50  1  0.86283100  0.87068100  0.86454100  1
  O  O51  1  0.87609000  0.64653300  0.62957200  1
  O  O52  1  0.86842600  0.89777100  0.39656400  1
  O  O53  1  0.87806200  0.11033200  0.60810100  1
  O  O54  1  0.89921400  0.38684000  0.87343400  1
  O  O55  1  0.90319700  0.62594800  0.11673500  1
