# generated using pymatgen
data_LiVFeP2(O4F)2
_symmetry_space_group_name_H-M   'P 1'
_cell_length_a   5.15713509
_cell_length_b   7.44962198
_cell_length_c   10.47470556
_cell_angle_alpha   75.86700211
_cell_angle_beta   97.25345431
_cell_angle_gamma   70.70719061
_symmetry_Int_Tables_number   1
_chemical_formula_structural   LiVFeP2(O4F)2
_chemical_formula_sum   'Li2 V2 Fe2 P4 O16 F4'
_cell_volume   358.79151537
_cell_formula_units_Z   2
loop_
 _symmetry_equiv_pos_site_id
 _symmetry_equiv_pos_as_xyz
  1  'x, y, z'
loop_
 _atom_site_type_symbol
 _atom_site_label
 _atom_site_symmetry_multiplicity
 _atom_site_fract_x
 _atom_site_fract_y
 _atom_site_fract_z
 _atom_site_occupancy
  Li  Li0  1  0.55368800  0.37027400  0.80451200  1
  Li  Li1  1  0.05374700  0.87030200  0.30449900  1
  V  V2  1  0.50133600  0.49669100  0.49859700  1
  V  V3  1  0.00140800  0.99660400  0.99856300  1
  Fe  Fe4  1  0.00400200  0.50265900  0.00237800  1
  Fe  Fe5  1  0.50409800  0.00277800  0.50232400  1
  P  P6  1  0.99632300  0.43765400  0.32062300  1
  P  P7  1  0.49637300  0.93761800  0.82060000  1
  P  P8  1  0.99778900  0.56372000  0.67820500  1
  P  P9  1  0.49782600  0.06371200  0.17818300  1
  O  O10  1  0.74322600  0.51934200  0.38908700  1
  O  O11  1  0.24325700  0.01933700  0.88905700  1
  O  O12  1  0.64392300  0.71296300  0.88887000  1
  O  O13  1  0.14397700  0.21299300  0.38886200  1
  O  O14  1  0.86830400  0.49424100  0.17055000  1
  O  O15  1  0.36842800  0.99422000  0.67052500  1
  O  O16  1  0.78129700  0.46121000  0.66450200  1
  O  O17  1  0.28140000  0.96115500  0.16447800  1
  O  O18  1  0.18788900  0.55632500  0.34569700  1
  O  O19  1  0.68793000  0.05628500  0.84569900  1
  O  O20  1  0.14372200  0.50707500  0.82842400  1
  O  O21  1  0.64373500  0.00710900  0.32840600  1
  O  O22  1  0.36491100  0.28711300  0.10394100  1
  O  O23  1  0.86491900  0.78711300  0.60394600  1
  O  O24  1  0.25646300  0.46808300  0.61708300  1
  O  O25  1  0.75653900  0.96811100  0.11708100  1
  F  F26  1  0.84686500  0.29042500  0.96637700  1
  F  F27  1  0.34688700  0.79046100  0.46638000  1
  F  F28  1  0.14735200  0.71305600  0.02897500  1
  F  F29  1  0.64741900  0.21313500  0.52900300  1
