# generated using pymatgen
data_Li3VPCO7
_symmetry_space_group_name_H-M   'P 1'
_cell_length_a   6.61602800
_cell_length_b   8.51418128
_cell_length_c   9.99486171
_cell_angle_alpha   95.26317409
_cell_angle_beta   90.26845506
_cell_angle_gamma   90.38405947
_symmetry_Int_Tables_number   1
_chemical_formula_structural   Li3VPCO7
_chemical_formula_sum   'Li12 V4 P4 C4 O28'
_cell_volume   560.61690713
_cell_formula_units_Z   4
loop_
 _symmetry_equiv_pos_site_id
 _symmetry_equiv_pos_as_xyz
  1  'x, y, z'
loop_
 _atom_site_type_symbol
 _atom_site_label
 _atom_site_symmetry_multiplicity
 _atom_site_fract_x
 _atom_site_fract_y
 _atom_site_fract_z
 _atom_site_occupancy
  Li  Li0  1  0.74069500  0.91004500  0.38412700  1
  Li  Li1  1  0.74401900  0.90229700  0.88283600  1
  Li  Li2  1  0.53147200  0.71582500  0.12245900  1
  Li  Li3  1  0.97180800  0.72053700  0.62529500  1
  Li  Li4  1  0.53231300  0.71822800  0.62533300  1
  Li  Li5  1  0.74930800  0.33691600  0.10593900  1
  Li  Li6  1  0.48099300  0.28042700  0.36561400  1
  Li  Li7  1  0.01846500  0.28094100  0.36532200  1
  Li  Li8  1  0.48591500  0.28024300  0.88731600  1
  Li  Li9  1  0.01067700  0.27826800  0.88721500  1
  Li  Li10  1  0.25186200  0.10631500  0.10808500  1
  Li  Li11  1  0.25137000  0.10007700  0.61571400  1
  V  V12  1  0.98768300  0.72718000  0.13226200  1
  V  V13  1  0.25178800  0.66957800  0.39946500  1
  V  V14  1  0.25463300  0.66810000  0.89035800  1
  V  V15  1  0.75061000  0.32790800  0.60327100  1
  P  P16  1  0.75015000  0.59101300  0.36110800  1
  P  P17  1  0.74900100  0.58303800  0.86053000  1
  P  P18  1  0.24999200  0.40682100  0.13920100  1
  P  P19  1  0.25092000  0.40873200  0.63850700  1
  C  C20  1  0.24609600  0.96509700  0.34686700  1
  C  C21  1  0.24770600  0.96410900  0.84805200  1
  C  C22  1  0.74795300  0.03945300  0.15040600  1
  C  C23  1  0.75055700  0.03512200  0.65312100  1
  O  O24  1  0.25299500  0.92801100  0.46935000  1
  O  O25  1  0.74750700  0.88944400  0.18291600  1
  O  O26  1  0.24685000  0.92309600  0.97138900  1
  O  O27  1  0.23898400  0.84597200  0.25168300  1
  O  O28  1  0.75126700  0.88867600  0.68028200  1
  O  O29  1  0.24893100  0.85059800  0.75075400  1
  O  O30  1  0.93401600  0.69458600  0.41454800  1
  O  O31  1  0.56838000  0.69311200  0.41426300  1
  O  O32  1  0.93459200  0.68655000  0.91618900  1
  O  O33  1  0.57056500  0.69101900  0.91178600  1
  O  O34  1  0.24986800  0.57611600  0.08675000  1
  O  O35  1  0.75301600  0.57401400  0.20381500  1
  O  O36  1  0.25214800  0.57637500  0.58930800  1
  O  O37  1  0.75413600  0.56938000  0.70340500  1
  O  O38  1  0.25048500  0.43357100  0.29674200  1
  O  O39  1  0.74989100  0.42485900  0.41024800  1
  O  O40  1  0.25151200  0.43001900  0.79539700  1
  O  O41  1  0.74692500  0.41969300  0.91189300  1
  O  O42  1  0.06214200  0.30912300  0.09020400  1
  O  O43  1  0.43691800  0.31163100  0.08996500  1
  O  O44  1  0.43268400  0.30696500  0.58504300  1
  O  O45  1  0.06765900  0.30651800  0.58418500  1
  O  O46  1  0.74472100  0.14920900  0.24793500  1
  O  O47  1  0.24826200  0.10736400  0.31455600  1
  O  O48  1  0.75112900  0.14854100  0.74904200  1
  O  O49  1  0.75069500  0.06665300  0.02716500  1
  O  O50  1  0.24877800  0.10950700  0.82279800  1
  O  O51  1  0.74896300  0.07312900  0.52998200  1
