# generated using pymatgen
data_Li3MnBPO7
_symmetry_space_group_name_H-M   'P 1'
_cell_length_a   5.01120410
_cell_length_b   10.68031133
_cell_length_c   10.67930969
_cell_angle_alpha   102.25218112
_cell_angle_beta   94.68472508
_cell_angle_gamma   85.31468364
_symmetry_Int_Tables_number   1
_chemical_formula_structural   Li3MnBPO7
_chemical_formula_sum   'Li12 Mn4 B4 P4 O28'
_cell_volume   555.46862874
_cell_formula_units_Z   4
loop_
 _symmetry_equiv_pos_site_id
 _symmetry_equiv_pos_as_xyz
  1  'x, y, z'
loop_
 _atom_site_type_symbol
 _atom_site_label
 _atom_site_symmetry_multiplicity
 _atom_site_fract_x
 _atom_site_fract_y
 _atom_site_fract_z
 _atom_site_occupancy
  Li  Li0  1  0.77134900  0.17438100  0.07560300  1
  Li  Li1  1  0.77153500  0.67436000  0.57565900  1
  Li  Li2  1  0.22871000  0.82560700  0.92442100  1
  Li  Li3  1  0.22843600  0.32564500  0.42432000  1
  Li  Li4  1  0.25162300  0.12375700  0.88202200  1
  Li  Li5  1  0.25144100  0.62392800  0.38198800  1
  Li  Li6  1  0.25132700  0.36795100  0.12616100  1
  Li  Li7  1  0.25167600  0.86806100  0.62617700  1
  Li  Li8  1  0.74855500  0.63206500  0.87381200  1
  Li  Li9  1  0.74847600  0.13192500  0.37378600  1
  Li  Li10  1  0.74856800  0.87630100  0.11800200  1
  Li  Li11  1  0.74847200  0.37606200  0.61799200  1
  Mn  Mn12  1  0.78204200  0.03814200  0.71168300  1
  Mn  Mn13  1  0.21808800  0.96177200  0.28830400  1
  Mn  Mn14  1  0.78161600  0.53812600  0.21177600  1
  Mn  Mn15  1  0.21812600  0.46182500  0.78810400  1
  B  B16  1  0.69965300  0.39722100  0.35272200  1
  B  B17  1  0.70008200  0.89738400  0.85275100  1
  B  B18  1  0.30028400  0.60280400  0.64727700  1
  B  B19  1  0.29991800  0.10259700  0.14729000  1
  P  P20  1  0.74881800  0.33237800  0.91762000  1
  P  P21  1  0.74891900  0.83227500  0.41771700  1
  P  P22  1  0.25094700  0.66761300  0.08237800  1
  P  P23  1  0.25129100  0.16772700  0.58228700  1
  O  O24  1  0.37006300  0.17868800  0.07128900  1
  O  O25  1  0.37032200  0.67882000  0.57119200  1
  O  O26  1  0.62996800  0.82127500  0.92871700  1
  O  O27  1  0.62966200  0.32117200  0.42877800  1
  O  O28  1  0.95879900  0.42087800  0.32902900  1
  O  O29  1  0.95936600  0.92101700  0.82910200  1
  O  O30  1  0.04105400  0.57917000  0.67090100  1
  O  O31  1  0.04070500  0.07896400  0.17095800  1
  O  O32  1  0.50561900  0.46575200  0.28421900  1
  O  O33  1  0.50639500  0.96598300  0.78413900  1
  O  O34  1  0.49404100  0.53420200  0.71583000  1
  O  O35  1  0.49388800  0.03407500  0.21583500  1
  O  O36  1  0.43777900  0.35419100  0.89578300  1
  O  O37  1  0.43779700  0.85404400  0.39603700  1
  O  O38  1  0.56201300  0.64585700  0.10417000  1
  O  O39  1  0.56235500  0.14596000  0.60402000  1
  O  O40  1  0.12439500  0.58640800  0.16348700  1
  O  O41  1  0.12497400  0.08653000  0.66348000  1
  O  O42  1  0.87527800  0.41360200  0.83652200  1
  O  O43  1  0.87533600  0.91349700  0.33655500  1
  O  O44  1  0.83682500  0.18767900  0.88119200  1
  O  O45  1  0.83675400  0.68753000  0.38139000  1
  O  O46  1  0.83658400  0.36870500  0.06236400  1
  O  O47  1  0.83682400  0.86869400  0.56246100  1
  O  O48  1  0.16331100  0.63132300  0.93761900  1
  O  O49  1  0.16334900  0.13129500  0.43758200  1
  O  O50  1  0.16323700  0.81234600  0.11884300  1
  O  O51  1  0.16335200  0.31243500  0.61865300  1
