# generated using pymatgen
data_LiCoPO4
_symmetry_space_group_name_H-M   'P 1'
_cell_length_a   4.92520700
_cell_length_b   9.09885900
_cell_length_c   6.41642801
_cell_angle_alpha   89.99766059
_cell_angle_beta   90.00500468
_cell_angle_gamma   89.99976066
_symmetry_Int_Tables_number   1
_chemical_formula_structural   LiCoPO4
_chemical_formula_sum   'Li4 Co4 P4 O16'
_cell_volume   287.54428970
_cell_formula_units_Z   4
loop_
 _symmetry_equiv_pos_site_id
 _symmetry_equiv_pos_as_xyz
  1  'x, y, z'
loop_
 _atom_site_type_symbol
 _atom_site_label
 _atom_site_symmetry_multiplicity
 _atom_site_fract_x
 _atom_site_fract_y
 _atom_site_fract_z
 _atom_site_occupancy
  Li  Li0  1  0.45988600  0.16232000  0.75003600  1
  Li  Li1  1  0.95990800  0.33765600  0.25002500  1
  Li  Li2  1  0.04009300  0.66234400  0.74997700  1
  Li  Li3  1  0.54011900  0.83768100  0.24996600  1
  Co  Co4  1  0.99999600  0.00000000  0.50000200  1
  Co  Co5  1  0.50000000  0.49999900  0.50000200  1
  Co  Co6  1  0.99999900  0.00000000  0.00000100  1
  Co  Co7  1  0.49999700  0.50000000  0.99999900  1
  P  P8  1  0.47072600  0.17893600  0.24998200  1
  P  P9  1  0.97071700  0.32106300  0.75001400  1
  P  P10  1  0.02928500  0.67893800  0.24998400  1
  P  P11  1  0.52927500  0.82106500  0.75001700  1
  O  O12  1  0.77786100  0.13503900  0.24999200  1
  O  O13  1  0.27784800  0.36497900  0.75000600  1
  O  O14  1  0.72215900  0.63501700  0.24999900  1
  O  O15  1  0.22213600  0.86496300  0.75000500  1
  O  O16  1  0.92411500  0.14892500  0.74998500  1
  O  O17  1  0.42408200  0.35108700  0.24996500  1
  O  O18  1  0.57591400  0.64891400  0.75004100  1
  O  O19  1  0.07588100  0.85107900  0.25001600  1
  O  O20  1  0.33518400  0.11969300  0.05017300  1
  O  O21  1  0.33522800  0.11971700  0.44984500  1
  O  O22  1  0.83514300  0.38031200  0.55018700  1
  O  O23  1  0.83522500  0.38027300  0.94986500  1
  O  O24  1  0.16477300  0.61972600  0.05012900  1
  O  O25  1  0.16486300  0.61968400  0.44980700  1
  O  O26  1  0.66477500  0.88028600  0.55015500  1
  O  O27  1  0.66481200  0.88030600  0.94982600  1
