# generated using pymatgen
data_LiMn2O3F
_symmetry_space_group_name_H-M   'P 1'
_cell_length_a   7.93338368
_cell_length_b   7.93338368
_cell_length_c   7.93338368
_cell_angle_alpha   134.69065023
_cell_angle_beta   114.95712663
_cell_angle_gamma   82.80661600
_symmetry_Int_Tables_number   1
_chemical_formula_structural   LiMn2O3F
_chemical_formula_sum   'Li4 Mn8 O12 F4'
_cell_volume   310.21991058
_cell_formula_units_Z   4
loop_
 _symmetry_equiv_pos_site_id
 _symmetry_equiv_pos_as_xyz
  1  'x, y, z'
loop_
 _atom_site_type_symbol
 _atom_site_label
 _atom_site_symmetry_multiplicity
 _atom_site_fract_x
 _atom_site_fract_y
 _atom_site_fract_z
 _atom_site_occupancy
  Li  Li0  1  0.27579300  0.37729400  0.89850000  1
  Li  Li1  1  0.52120600  0.62270600  0.89850000  1
  Li  Li2  1  0.98293900  0.87111800  0.11182100  1
  Li  Li3  1  0.24070300  0.12888200  0.11182100  1
  Mn  Mn4  1  0.48573200  0.00000000  0.48573200  1
  Mn  Mn5  1  0.24246500  0.74989700  0.49256900  1
  Mn  Mn6  1  0.74267200  0.25010300  0.49256900  1
  Mn  Mn7  1  0.62446500  0.61879900  0.49185100  1
  Mn  Mn8  1  0.62446500  0.13261400  0.00566600  1
  Mn  Mn9  1  0.87305200  0.86738600  0.49185100  1
  Mn  Mn10  1  0.87305200  0.38120100  0.00566600  1
  Mn  Mn11  1  0.01303000  0.50000000  0.51303000  1
  O  O12  1  0.39365200  0.66074600  0.30818300  1
  O  O13  1  0.64743700  0.91453100  0.30818300  1
  O  O14  1  0.39365200  0.08546900  0.73290600  1
  O  O15  1  0.64743700  0.33925400  0.73290600  1
  O  O16  1  0.75300500  0.00000000  0.75300500  1
  O  O17  1  0.97516800  0.73374700  0.24142100  1
  O  O18  1  0.50767400  0.26625300  0.24142100  1
  O  O19  1  0.74195800  0.50000000  0.24195800  1
  O  O20  1  0.85352100  0.16068700  0.26449200  1
  O  O21  1  0.10380500  0.41097100  0.26449200  1
  O  O22  1  0.85352100  0.58902900  0.69283400  1
  O  O23  1  0.10380500  0.83931300  0.69283400  1
  F  F24  1  0.26039700  0.50000000  0.76039700  1
  F  F25  1  0.51164800  0.75008900  0.76155900  1
  F  F26  1  0.01147000  0.24991100  0.76155900  1
  F  F27  1  0.24227500  0.00000000  0.24227500  1
