# generated using pymatgen
data_Li4Mn3Cu3(TeO8)2
_symmetry_space_group_name_H-M   'P 1'
_cell_length_a   5.97367093
_cell_length_b   5.94139176
_cell_length_c   9.89960721
_cell_angle_alpha   89.99007319
_cell_angle_beta   87.61940938
_cell_angle_gamma   119.78534684
_symmetry_Int_Tables_number   1
_chemical_formula_structural   Li4Mn3Cu3(TeO8)2
_chemical_formula_sum   'Li4 Mn3 Cu3 Te2 O16'
_cell_volume   304.58840074
_cell_formula_units_Z   1
loop_
 _symmetry_equiv_pos_site_id
 _symmetry_equiv_pos_as_xyz
  1  'x, y, z'
loop_
 _atom_site_type_symbol
 _atom_site_label
 _atom_site_symmetry_multiplicity
 _atom_site_fract_x
 _atom_site_fract_y
 _atom_site_fract_z
 _atom_site_occupancy
  Li  Li0  1  0.33578100  0.66790700  0.91782500  1
  Li  Li1  1  0.99570100  0.99781000  0.98412400  1
  Li  Li2  1  0.99905300  0.99956300  0.47789300  1
  Li  Li3  1  0.68261700  0.34125900  0.41140200  1
  Mn  Mn4  1  0.65631300  0.82824500  0.21229300  1
  Mn  Mn5  1  0.83178400  0.66204000  0.71156400  1
  Mn  Mn6  1  0.83179200  0.16974300  0.71158800  1
  Cu  Cu7  1  0.16713500  0.83040100  0.20986200  1
  Cu  Cu8  1  0.16705500  0.33673700  0.20986800  1
  Cu  Cu9  1  0.33943000  0.16970800  0.71063700  1
  Te  Te10  1  0.33857200  0.66942600  0.48038800  1
  Te  Te11  1  0.65977100  0.33009700  0.98322100  1
  O  O12  1  0.16176800  0.82659400  0.58469000  1
  O  O13  1  0.05175100  0.52581500  0.35309000  1
  O  O14  1  0.34068800  0.67027300  0.12162400  1
  O  O15  1  0.98774800  0.99395600  0.28984700  1
  O  O16  1  0.99114200  0.99564300  0.79364100  1
  O  O17  1  0.16170800  0.33516800  0.58471200  1
  O  O18  1  0.50630100  0.97424300  0.35878300  1
  O  O19  1  0.50617100  0.53183500  0.35870700  1
  O  O20  1  0.32105000  0.16061900  0.08340200  1
  O  O21  1  0.64562100  0.82281600  0.59282000  1
  O  O22  1  0.52795900  0.49089900  0.85422000  1
  O  O23  1  0.52798500  0.03696500  0.85422500  1
  O  O24  1  0.68083700  0.34035700  0.61959500  1
  O  O25  1  0.80667400  0.64768600  0.08915100  1
  O  O26  1  0.97069600  0.48537500  0.85941000  1
  O  O27  1  0.80689700  0.15911700  0.08925800  1
