# generated using pymatgen
data_LiP2WO7
_symmetry_space_group_name_H-M   'P 1'
_cell_length_a   5.09656900
_cell_length_b   8.61048700
_cell_length_c   13.87921518
_cell_angle_alpha   64.83036075
_cell_angle_beta   90.00000000
_cell_angle_gamma   90.00000000
_symmetry_Int_Tables_number   1
_chemical_formula_structural   LiP2WO7
_chemical_formula_sum   'Li4 P8 W4 O28'
_cell_volume   551.24457177
_cell_formula_units_Z   4
loop_
 _symmetry_equiv_pos_site_id
 _symmetry_equiv_pos_as_xyz
  1  'x, y, z'
loop_
 _atom_site_type_symbol
 _atom_site_label
 _atom_site_symmetry_multiplicity
 _atom_site_fract_x
 _atom_site_fract_y
 _atom_site_fract_z
 _atom_site_occupancy
  Li  Li0  1  0.27971600  0.40782900  0.70921200  1
  Li  Li1  1  0.77971600  0.59217100  0.79078800  1
  Li  Li2  1  0.22028400  0.40782900  0.20921200  1
  Li  Li3  1  0.72028400  0.59217100  0.29078800  1
  P  P4  1  0.76083300  0.17401900  0.85104500  1
  P  P5  1  0.22888500  0.70027500  0.37832800  1
  P  P6  1  0.26083300  0.82598100  0.64895500  1
  P  P7  1  0.27111500  0.70027500  0.87832800  1
  P  P8  1  0.72888500  0.29972500  0.12167200  1
  P  P9  1  0.73916700  0.17401900  0.35104500  1
  P  P10  1  0.77111500  0.29972500  0.62167200  1
  P  P11  1  0.23916700  0.82598100  0.14895500  1
  W  W12  1  0.24264900  0.26918100  0.97058300  1
  W  W13  1  0.74264900  0.73081900  0.52941700  1
  W  W14  1  0.25735100  0.26918100  0.47058300  1
  W  W15  1  0.75735100  0.73081900  0.02941700  1
  O  O16  1  0.04212300  0.24765200  0.83928200  1
  O  O17  1  0.56251300  0.31003000  0.85339500  1
  O  O18  1  0.65169900  0.46270500  0.62471400  1
  O  O19  1  0.93073700  0.68234700  0.39979400  1
  O  O20  1  0.28350600  0.84602700  0.25917100  1
  O  O21  1  0.37123400  0.76093100  0.45135800  1
  O  O22  1  0.28295400  0.99992700  0.06140800  1
  O  O23  1  0.15169900  0.53729500  0.87528600  1
  O  O24  1  0.06251300  0.68997000  0.64660500  1
  O  O25  1  0.54212300  0.75234800  0.66071800  1
  O  O26  1  0.78295400  0.00007300  0.43859200  1
  O  O27  1  0.56926300  0.68234700  0.89979400  1
  O  O28  1  0.87123400  0.23906900  0.04864200  1
  O  O29  1  0.78350600  0.15397300  0.24082900  1
  O  O30  1  0.21649400  0.84602700  0.75917100  1
  O  O31  1  0.12876600  0.76093100  0.95135800  1
  O  O32  1  0.43073700  0.31765300  0.10020600  1
  O  O33  1  0.21704600  0.99992700  0.56140800  1
  O  O34  1  0.45787700  0.24765200  0.33928200  1
  O  O35  1  0.93748700  0.31003000  0.35339500  1
  O  O36  1  0.84830100  0.46270500  0.12471400  1
  O  O37  1  0.71704600  0.00007300  0.93859200  1
  O  O38  1  0.62876600  0.23906900  0.54864200  1
  O  O39  1  0.71649400  0.15397300  0.74082900  1
  O  O40  1  0.06926300  0.31765300  0.60020600  1
  O  O41  1  0.34830100  0.53729500  0.37528600  1
  O  O42  1  0.43748700  0.68997000  0.14660500  1
  O  O43  1  0.95787700  0.75234800  0.16071800  1
