# generated using pymatgen
data_LiSnP2O7
_symmetry_space_group_name_H-M   'P 1'
_cell_length_a   8.79381800
_cell_length_b   7.30353100
_cell_length_c   9.22538422
_cell_angle_alpha   67.15102727
_cell_angle_beta   90.00000000
_cell_angle_gamma   90.00000000
_symmetry_Int_Tables_number   1
_chemical_formula_structural   LiSnP2O7
_chemical_formula_sum   'Li4 Sn4 P8 O28'
_cell_volume   546.01558720
_cell_formula_units_Z   4
loop_
 _symmetry_equiv_pos_site_id
 _symmetry_equiv_pos_as_xyz
  1  'x, y, z'
loop_
 _atom_site_type_symbol
 _atom_site_label
 _atom_site_symmetry_multiplicity
 _atom_site_fract_x
 _atom_site_fract_y
 _atom_site_fract_z
 _atom_site_occupancy
  Li  Li0  1  0.95167900  0.28784800  0.82688000  1
  Li  Li1  1  0.45167900  0.71215200  0.67312000  1
  Li  Li2  1  0.54832100  0.28784800  0.32688000  1
  Li  Li3  1  0.04832100  0.71215200  0.17312000  1
  Sn  Sn4  1  0.57756600  0.25099000  0.88211900  1
  Sn  Sn5  1  0.07756600  0.74901000  0.61788100  1
  Sn  Sn6  1  0.92243400  0.25099000  0.38211900  1
  Sn  Sn7  1  0.42243400  0.74901000  0.11788100  1
  P  P8  1  0.72555900  0.53571400  0.52982900  1
  P  P9  1  0.22555900  0.46428600  0.97017100  1
  P  P10  1  0.74010400  0.93323200  0.24788300  1
  P  P11  1  0.24010400  0.06676800  0.25211700  1
  P  P12  1  0.75989600  0.93323200  0.74788300  1
  P  P13  1  0.25989600  0.06676800  0.75211700  1
  P  P14  1  0.77444100  0.53571400  0.02982900  1
  P  P15  1  0.27444100  0.46428600  0.47017100  1
  O  O16  1  0.59266300  0.49358200  0.64807200  1
  O  O17  1  0.88049600  0.54067000  0.60384300  1
  O  O18  1  0.77517000  0.38795300  0.94671700  1
  O  O19  1  0.27517000  0.61204700  0.55328300  1
  O  O20  1  0.38049600  0.45933000  0.89615700  1
  O  O21  1  0.67719200  0.74963900  0.40148400  1
  O  O22  1  0.09266300  0.50641800  0.85192800  1
  O  O23  1  0.24013900  0.88652600  0.20290400  1
  O  O24  1  0.88710900  0.88093200  0.19426300  1
  O  O25  1  0.60292500  0.97068600  0.12591100  1
  O  O26  1  0.82280800  0.74963900  0.90148400  1
  O  O27  1  0.10292500  0.02931400  0.37408900  1
  O  O28  1  0.25986100  0.88652600  0.70290400  1
  O  O29  1  0.61289100  0.88093200  0.69426300  1
  O  O30  1  0.38710900  0.11906800  0.30573700  1
  O  O31  1  0.74013900  0.11347400  0.29709600  1
  O  O32  1  0.89707500  0.97068600  0.62591100  1
  O  O33  1  0.17719200  0.25036100  0.09851600  1
  O  O34  1  0.39707500  0.02931400  0.87408900  1
  O  O35  1  0.11289100  0.11906800  0.80573700  1
  O  O36  1  0.75986100  0.11347400  0.79709600  1
  O  O37  1  0.90733700  0.49358200  0.14807200  1
  O  O38  1  0.32280800  0.25036100  0.59851600  1
  O  O39  1  0.61950400  0.54067000  0.10384300  1
  O  O40  1  0.72483000  0.38795300  0.44671700  1
  O  O41  1  0.22483000  0.61204700  0.05328300  1
  O  O42  1  0.11950400  0.45933000  0.39615700  1
  O  O43  1  0.40733700  0.50641800  0.35192800  1
