# generated using pymatgen
data_Li2V3CrO8
_symmetry_space_group_name_H-M   'P 1'
_cell_length_a   5.90930216
_cell_length_b   5.90930216
_cell_length_c   9.62214577
_cell_angle_alpha   89.67341675
_cell_angle_beta   89.67341675
_cell_angle_gamma   120.28985167
_symmetry_Int_Tables_number   1
_chemical_formula_structural   Li2V3CrO8
_chemical_formula_sum   'Li4 V6 Cr2 O16'
_cell_volume   290.11527981
_cell_formula_units_Z   2
loop_
 _symmetry_equiv_pos_site_id
 _symmetry_equiv_pos_as_xyz
  1  'x, y, z'
loop_
 _atom_site_type_symbol
 _atom_site_label
 _atom_site_symmetry_multiplicity
 _atom_site_fract_x
 _atom_site_fract_y
 _atom_site_fract_z
 _atom_site_occupancy
  Li  Li0  1  0.66597200  0.33189800  0.89495300  1
  Li  Li1  1  0.99716800  0.99963100  0.99628300  1
  Li  Li2  1  0.99963100  0.99716800  0.49628300  1
  Li  Li3  1  0.33189800  0.66597200  0.39495300  1
  V  V4  1  0.34013600  0.16964300  0.20879500  1
  V  V5  1  0.82384600  0.65809300  0.21502300  1
  V  V6  1  0.82561700  0.16583000  0.21442400  1
  V  V7  1  0.16583000  0.82561700  0.71442400  1
  V  V8  1  0.16964300  0.34013600  0.70879500  1
  V  V9  1  0.65809300  0.82384600  0.71502300  1
  Cr  Cr10  1  0.66930700  0.33199400  0.48542400  1
  Cr  Cr11  1  0.33199400  0.66930700  0.98542400  1
  O  O12  1  0.32661600  0.15588700  0.60396700  1
  O  O13  1  0.52803100  0.48763500  0.33914000  1
  O  O14  1  0.68922200  0.34628300  0.09955900  1
  O  O15  1  0.98906600  0.99350900  0.31147700  1
  O  O16  1  0.99350900  0.98906600  0.81147700  1
  O  O17  1  0.83480200  0.66822400  0.60461900  1
  O  O18  1  0.52976300  0.03961800  0.33726300  1
  O  O19  1  0.96162300  0.48083100  0.33926900  1
  O  O20  1  0.15723100  0.83222300  0.10372500  1
  O  O21  1  0.83222300  0.15723100  0.60372500  1
  O  O22  1  0.03961800  0.52976300  0.83726300  1
  O  O23  1  0.48083100  0.96162300  0.83926900  1
  O  O24  1  0.34628300  0.68922200  0.59955900  1
  O  O25  1  0.15588700  0.32661600  0.10396700  1
  O  O26  1  0.48763500  0.52803100  0.83914000  1
  O  O27  1  0.66822400  0.83480200  0.10461900  1
