# generated using pymatgen
data_Li3(NiO2)5
_symmetry_space_group_name_H-M   'P 1'
_cell_length_a   6.47079900
_cell_length_b   7.48248091
_cell_length_c   7.56894425
_cell_angle_alpha   66.49333521
_cell_angle_beta   87.50226335
_cell_angle_gamma   88.61565854
_symmetry_Int_Tables_number   1
_chemical_formula_structural   Li3(NiO2)5
_chemical_formula_sum   'Li6 Ni10 O20'
_cell_volume   335.72985917
_cell_formula_units_Z   2
loop_
 _symmetry_equiv_pos_site_id
 _symmetry_equiv_pos_as_xyz
  1  'x, y, z'
loop_
 _atom_site_type_symbol
 _atom_site_label
 _atom_site_symmetry_multiplicity
 _atom_site_fract_x
 _atom_site_fract_y
 _atom_site_fract_z
 _atom_site_occupancy
  Li  Li0  1  0.69547600  0.80550900  0.30837400  1
  Li  Li1  1  0.39776900  0.61136100  0.59919300  1
  Li  Li2  1  0.10436600  0.39634200  0.89561100  1
  Li  Li3  1  0.89987200  0.61516100  0.09763700  1
  Li  Li4  1  0.31086500  0.17273400  0.69019200  1
  Li  Li5  1  0.79372900  0.19789600  0.21202500  1
  Ni  Ni6  1  0.60021100  0.89661800  0.90347600  1
  Ni  Ni7  1  0.10228600  0.90011900  0.40041700  1
  Ni  Ni8  1  0.80162000  0.70044500  0.70173800  1
  Ni  Ni9  1  0.50059400  0.50116100  0.00076700  1
  Ni  Ni10  1  0.29569600  0.69936700  0.19778100  1
  Ni  Ni11  1  0.99543300  0.49930800  0.49809300  1
  Ni  Ni12  1  0.70065700  0.29777700  0.80204400  1
  Ni  Ni13  1  0.20371100  0.30402200  0.29838400  1
  Ni  Ni14  1  0.90033500  0.10053700  0.60082200  1
  Ni  Ni15  1  0.39713600  0.10198600  0.09864600  1
  O  O16  1  0.32803700  0.95503000  0.95823200  1
  O  O17  1  0.87217500  0.84060100  0.84523100  1
  O  O18  1  0.83147200  0.95536500  0.45703600  1
  O  O19  1  0.52305500  0.73520300  0.77797100  1
  O  O20  1  0.37127500  0.83941600  0.33997400  1
  O  O21  1  0.07936600  0.63771400  0.64062100  1
  O  O22  1  0.01117300  0.73096300  0.27792000  1
  O  O23  1  0.77463000  0.44072400  0.94913500  1
  O  O24  1  0.72374800  0.56047500  0.55706000  1
  O  O25  1  0.58153800  0.66181600  0.12478800  1
  O  O26  1  0.42367600  0.36269200  0.85404300  1
  O  O27  1  0.26893500  0.44380800  0.44689800  1
  O  O28  1  0.22433800  0.53795000  0.07223900  1
  O  O29  1  0.97857900  0.26657900  0.72232100  1
  O  O30  1  0.92977300  0.36062300  0.34792800  1
  O  O31  1  0.62312300  0.13137800  0.68386900  1
  O  O32  1  0.47880400  0.26536500  0.22239900  1
  O  O33  1  0.17797700  0.07415200  0.51911900  1
  O  O34  1  0.12255900  0.16384300  0.15705900  1
  O  O35  1  0.67064800  0.03948400  0.04834600  1
