# generated using pymatgen
data_Li2V18O39
_symmetry_space_group_name_H-M   'P 1'
_cell_length_a   3.74332500
_cell_length_b   11.28524529
_cell_length_c   17.50622216
_cell_angle_alpha   104.65377771
_cell_angle_beta   89.98352104
_cell_angle_gamma   99.53497123
_symmetry_Int_Tables_number   1
_chemical_formula_structural   Li2V18O39
_chemical_formula_sum   'Li2 V18 O39'
_cell_volume   704.92699026
_cell_formula_units_Z   1
loop_
 _symmetry_equiv_pos_site_id
 _symmetry_equiv_pos_as_xyz
  1  'x, y, z'
loop_
 _atom_site_type_symbol
 _atom_site_label
 _atom_site_symmetry_multiplicity
 _atom_site_fract_x
 _atom_site_fract_y
 _atom_site_fract_z
 _atom_site_occupancy
  Li  Li0  1  0.27149800  0.52457900  0.65941300  1
  Li  Li1  1  0.73789400  0.47392200  0.34001500  1
  V  V2  1  0.19758200  0.40311300  0.44924900  1
  V  V3  1  0.36383900  0.72358200  0.34533200  1
  V  V4  1  0.79502500  0.59715400  0.55085500  1
  V  V5  1  0.89606100  0.76150600  0.76230900  1
  V  V6  1  0.55562700  0.10563000  0.10029600  1
  V  V7  1  0.69192800  0.38345000  0.02166700  1
  V  V8  1  0.93684600  0.86893400  0.47214700  1
  V  V9  1  0.59066000  0.17756400  0.82412500  1
  V  V10  1  0.13682800  0.24042000  0.23867500  1
  V  V11  1  0.97929700  0.95663300  0.30882100  1
  V  V12  1  0.41248700  0.82227300  0.17498100  1
  V  V13  1  0.26102100  0.52079900  0.15179200  1
  V  V14  1  0.02330700  0.04369800  0.69046100  1
  V  V15  1  0.44785900  0.89810600  0.90273300  1
  V  V16  1  0.63954800  0.27642500  0.65429500  1
  V  V17  1  0.30968700  0.61664200  0.97782400  1
  V  V18  1  0.07307800  0.13103200  0.52726100  1
  V  V19  1  0.74279600  0.47939800  0.84800100  1
  O  O20  1  0.37403300  0.74767900  0.94575900  1
  O  O21  1  0.86445900  0.72690800  0.51878000  1
  O  O22  1  0.20282900  0.40347500  0.19662200  1
  O  O23  1  0.99463000  0.98651200  0.57148900  1
  O  O24  1  0.93697100  0.87187500  0.87581800  1
  O  O25  1  0.08540500  0.16818400  0.79577900  1
  O  O26  1  0.60706800  0.22243200  0.21354900  1
  O  O27  1  0.24575400  0.48635000  0.87466900  1
  O  O28  1  0.38979700  0.78042400  0.78781700  1
  O  O29  1  0.42374400  0.84429700  0.45422600  1
  O  O30  1  0.47420800  0.94827200  0.13868600  1
  O  O31  1  0.13638000  0.27336800  0.48132800  1
  O  O32  1  0.81727700  0.65768700  0.66611700  1
  O  O33  1  0.91713100  0.83219900  0.20344300  1
  O  O34  1  0.89022500  0.77649400  0.35435000  1
  O  O35  1  0.70833300  0.41494800  0.63191300  1
  O  O36  1  0.04817200  0.09407900  0.28242400  1
  O  O37  1  0.00840900  0.01349800  0.42782600  1
  O  O38  1  0.65553100  0.30740900  0.90714500  1
  O  O39  1  0.11307400  0.22359400  0.64507700  1
  O  O40  1  0.32949700  0.65734100  0.23012400  1
  O  O41  1  0.52521600  0.05014200  0.85907600  1
  O  O42  1  0.45151700  0.90085400  0.29691000  1
  O  O43  1  0.55132000  0.09984600  0.70218300  1
  O  O44  1  0.22131700  0.44197800  0.03264800  1
  O  O45  1  0.49932800  0.99663000  0.99667100  1
  O  O46  1  0.57940300  0.15589500  0.54536300  1
  O  O47  1  0.62459200  0.25209600  0.05314600  1
  O  O48  1  0.95735200  0.90643700  0.71677500  1
  O  O49  1  0.67343100  0.34282400  0.76965800  1
  O  O50  1  0.34710600  0.69136300  0.09234600  1
  O  O51  1  0.72695400  0.45918100  0.45147800  1
  O  O52  1  0.29726200  0.58581100  0.36829800  1
  O  O53  1  0.16122700  0.34474100  0.33506900  1
  O  O54  1  0.80337400  0.59685000  0.80356200  1
  O  O55  1  0.26810400  0.54126900  0.54867700  1
  O  O56  1  0.75696800  0.51337700  0.12534100  1
  O  O57  1  0.78056400  0.55814700  0.96713700  1
  O  O58  1  0.06124100  0.12539100  0.12096700  1
