# generated using pymatgen
data_Li4Fe3Co2Sb3O16
_symmetry_space_group_name_H-M   'P 1'
_cell_length_a   5.99185676
_cell_length_b   5.99185676
_cell_length_c   9.82326218
_cell_angle_alpha   89.91025578
_cell_angle_beta   89.91025578
_cell_angle_gamma   60.68903709
_symmetry_Int_Tables_number   1
_chemical_formula_structural   Li4Fe3Co2Sb3O16
_chemical_formula_sum   'Li4 Fe3 Co2 Sb3 O16'
_cell_volume   307.52625989
_cell_formula_units_Z   1
loop_
 _symmetry_equiv_pos_site_id
 _symmetry_equiv_pos_as_xyz
  1  'x, y, z'
loop_
 _atom_site_type_symbol
 _atom_site_label
 _atom_site_symmetry_multiplicity
 _atom_site_fract_x
 _atom_site_fract_y
 _atom_site_fract_z
 _atom_site_occupancy
  Li  Li0  1  0.66659700  0.66659700  0.87472100  1
  Li  Li1  1  0.98548100  0.98548100  0.98939400  1
  Li  Li2  1  0.99007400  0.99007400  0.50636100  1
  Li  Li3  1  0.33124300  0.33124300  0.40136800  1
  Fe  Fe4  1  0.83304800  0.83304800  0.21539700  1
  Fe  Fe5  1  0.66261800  0.17245200  0.71529100  1
  Fe  Fe6  1  0.17245200  0.66261800  0.71529100  1
  Co  Co7  1  0.67479800  0.67479800  0.51901700  1
  Co  Co8  1  0.34321300  0.34321300  0.97566700  1
  Sb  Sb9  1  0.83217300  0.33934200  0.21569600  1
  Sb  Sb10  1  0.33934200  0.83217300  0.21569600  1
  Sb  Sb11  1  0.17149600  0.17149600  0.71513000  1
  O  O12  1  0.84351800  0.31475000  0.60136700  1
  O  O13  1  0.51274800  0.51274800  0.33207700  1
  O  O14  1  0.66855800  0.66855800  0.10201900  1
  O  O15  1  0.99933900  0.99933900  0.31950900  1
  O  O16  1  0.00142600  0.00142600  0.81169300  1
  O  O17  1  0.31475000  0.84351800  0.60136700  1
  O  O18  1  0.96824100  0.52102900  0.32586200  1
  O  O19  1  0.52102900  0.96824100  0.32586200  1
  O  O20  1  0.15752400  0.15752400  0.10009600  1
  O  O21  1  0.84275100  0.84275100  0.61297000  1
  O  O22  1  0.48662100  0.03590700  0.83347300  1
  O  O23  1  0.03590700  0.48662100  0.83347300  1
  O  O24  1  0.33607700  0.33607700  0.60615100  1
  O  O25  1  0.68845800  0.15544500  0.10849000  1
  O  O26  1  0.48306600  0.48306600  0.82600400  1
  O  O27  1  0.15544500  0.68845800  0.10849000  1
