# generated using pymatgen
data_Li2Ti2MnCr2(PO4)6
_symmetry_space_group_name_H-M   'P 1'
_cell_length_a   8.60104500
_cell_length_b   8.63615160
_cell_length_c   8.63886753
_cell_angle_alpha   60.07624150
_cell_angle_beta   60.18768804
_cell_angle_gamma   60.24098215
_symmetry_Int_Tables_number   1
_chemical_formula_structural   Li2Ti2MnCr2(PO4)6
_chemical_formula_sum   'Li2 Ti2 Mn1 Cr2 P6 O24'
_cell_volume   455.47414755
_cell_formula_units_Z   1
loop_
 _symmetry_equiv_pos_site_id
 _symmetry_equiv_pos_as_xyz
  1  'x, y, z'
loop_
 _atom_site_type_symbol
 _atom_site_label
 _atom_site_symmetry_multiplicity
 _atom_site_fract_x
 _atom_site_fract_y
 _atom_site_fract_z
 _atom_site_occupancy
  Li  Li0  1  0.00474900  0.98868400  0.99807200  1
  Li  Li1  1  0.76254300  0.35224000  0.13648900  1
  Ti  Ti2  1  0.56793100  0.13871800  0.14473300  1
  Ti  Ti3  1  0.42414300  0.85811700  0.85788900  1
  Mn  Mn4  1  0.49642400  0.50231700  0.50943500  1
  Cr  Cr5  1  0.93013300  0.35676100  0.35854500  1
  Cr  Cr6  1  0.07308900  0.64512400  0.63967100  1
  P  P7  1  0.75109600  0.46068000  0.74854100  1
  P  P8  1  0.24301900  0.25188400  0.95846700  1
  P  P9  1  0.24658400  0.95961700  0.54312700  1
  P  P10  1  0.75079200  0.03976700  0.45971400  1
  P  P11  1  0.75194700  0.75135700  0.03746500  1
  P  P12  1  0.25288600  0.54063200  0.25095100  1
  O  O13  1  0.06713700  0.11712900  0.50854800  1
  O  O14  1  0.07511700  0.50367400  0.30299200  1
  O  O15  1  0.75340000  0.27503200  0.92325600  1
  O  O16  1  0.57186600  0.62543900  0.80333000  1
  O  O17  1  0.24451800  0.93749100  0.73286200  1
  O  O18  1  0.05588900  0.30588400  0.11470000  1
  O  O19  1  0.41780700  0.19709100  0.00946300  1
  O  O20  1  0.73526900  0.44034400  0.58828500  1
  O  O21  1  0.26444200  0.41547600  0.76594200  1
  O  O22  1  0.24464500  0.08501000  0.93594200  1
  O  O23  1  0.42664100  0.00419200  0.37802900  1
  O  O24  1  0.26686200  0.76563900  0.55452100  1
  O  O25  1  0.73429200  0.24021200  0.43464400  1
  O  O26  1  0.57168800  0.00014100  0.62190300  1
  O  O27  1  0.75340100  0.91353500  0.06676900  1
  O  O28  1  0.73491100  0.57882900  0.22736200  1
  O  O29  1  0.26729200  0.55650100  0.41468100  1
  O  O30  1  0.93219700  0.69726300  0.87954300  1
  O  O31  1  0.57224100  0.80872300  0.99537500  1
  O  O32  1  0.75483300  0.07209300  0.26302800  1
  O  O33  1  0.43823400  0.37944400  0.19374500  1
  O  O34  1  0.24769300  0.73149900  0.08462300  1
  O  O35  1  0.93188000  0.49306000  0.69545000  1
  O  O36  1  0.93241200  0.88340000  0.48890700  1
