# generated using pymatgen
data_Li5Nb2Fe3O10
_symmetry_space_group_name_H-M   'P 1'
_cell_length_a   5.33585887
_cell_length_b   7.98271713
_cell_length_c   10.52585448
_cell_angle_alpha   108.00957834
_cell_angle_beta   80.86117623
_cell_angle_gamma   108.89018024
_symmetry_Int_Tables_number   1
_chemical_formula_structural   Li5Nb2Fe3O10
_chemical_formula_sum   'Li10 Nb4 Fe6 O20'
_cell_volume   402.55374954
_cell_formula_units_Z   2
loop_
 _symmetry_equiv_pos_site_id
 _symmetry_equiv_pos_as_xyz
  1  'x, y, z'
loop_
 _atom_site_type_symbol
 _atom_site_label
 _atom_site_symmetry_multiplicity
 _atom_site_fract_x
 _atom_site_fract_y
 _atom_site_fract_z
 _atom_site_occupancy
  Li  Li0  1  0.50010700  0.50033500  0.49995200  1
  Li  Li1  1  0.49960200  0.49968700  0.00000000  1
  Li  Li2  1  0.22802000  0.39863800  0.24241800  1
  Li  Li3  1  0.22749100  0.39883200  0.74266400  1
  Li  Li4  1  0.77267700  0.60127400  0.75733600  1
  Li  Li5  1  0.77202300  0.60132100  0.25761200  1
  Li  Li6  1  0.39731300  0.79641700  0.74658300  1
  Li  Li7  1  0.39708100  0.79665700  0.24685600  1
  Li  Li8  1  0.60283500  0.20328900  0.25310700  1
  Li  Li9  1  0.60253300  0.20357300  0.75345500  1
  Nb  Nb10  1  0.10556800  0.68788800  0.49049600  1
  Nb  Nb11  1  0.10597500  0.68894600  0.99096300  1
  Nb  Nb12  1  0.89375900  0.31107800  0.50913900  1
  Nb  Nb13  1  0.89423200  0.31188700  0.00942600  1
  Fe  Fe14  1  0.00015900  0.00002300  0.25009500  1
  Fe  Fe15  1  0.69398100  0.89583100  0.50125000  1
  Fe  Fe16  1  0.30617500  0.10421100  0.99872500  1
  Fe  Fe17  1  0.00016400  0.00003500  0.74996000  1
  Fe  Fe18  1  0.69313100  0.89414200  0.00098700  1
  Fe  Fe19  1  0.30685900  0.10577900  0.49901500  1
  O  O20  1  0.04925700  0.83941600  0.87793400  1
  O  O21  1  0.05047000  0.83997700  0.37832500  1
  O  O22  1  0.94943300  0.15967800  0.12150800  1
  O  O23  1  0.95080100  0.16063200  0.62206500  1
  O  O24  1  0.33522500  0.93897700  0.61634700  1
  O  O25  1  0.33636900  0.94001000  0.11696600  1
  O  O26  1  0.66374000  0.06006900  0.38306100  1
  O  O27  1  0.66474200  0.06098700  0.88340600  1
  O  O28  1  0.15641700  0.54582300  0.61860800  1
  O  O29  1  0.15709200  0.54589400  0.11875200  1
  O  O30  1  0.84295800  0.45387700  0.38111800  1
  O  O31  1  0.84346100  0.45422500  0.88143500  1
  O  O32  1  0.21793900  0.24490300  0.38145100  1
  O  O33  1  0.21801200  0.24508400  0.88143300  1
  O  O34  1  0.78205400  0.75499300  0.61853000  1
  O  O35  1  0.78230800  0.75526400  0.11880800  1
  O  O36  1  0.42206100  0.64712500  0.37893100  1
  O  O37  1  0.42215300  0.64802200  0.87902300  1
  O  O38  1  0.57789700  0.35237800  0.62117400  1
  O  O39  1  0.57792600  0.35282000  0.12108900  1
