# generated using pymatgen
data_Li4TiMn(WO6)2
_symmetry_space_group_name_H-M   'P 1'
_cell_length_a   5.11102819
_cell_length_b   9.48763838
_cell_length_c   8.85196425
_cell_angle_alpha   108.09820047
_cell_angle_beta   90.02881010
_cell_angle_gamma   89.97116815
_symmetry_Int_Tables_number   1
_chemical_formula_structural   Li4TiMn(WO6)2
_chemical_formula_sum   'Li8 Ti2 Mn2 W4 O24'
_cell_volume   408.00899156
_cell_formula_units_Z   2
loop_
 _symmetry_equiv_pos_site_id
 _symmetry_equiv_pos_as_xyz
  1  'x, y, z'
loop_
 _atom_site_type_symbol
 _atom_site_label
 _atom_site_symmetry_multiplicity
 _atom_site_fract_x
 _atom_site_fract_y
 _atom_site_fract_z
 _atom_site_occupancy
  Li  Li0  1  0.00097500  0.43010800  0.14066900  1
  Li  Li1  1  0.00098000  0.93013800  0.64070000  1
  Li  Li2  1  0.49936900  0.93292300  0.14736700  1
  Li  Li3  1  0.49937200  0.43291200  0.64738200  1
  Li  Li4  1  0.99995700  0.17362400  0.39298200  1
  Li  Li5  1  0.99995400  0.67362100  0.89298500  1
  Li  Li6  1  0.50022700  0.67946700  0.39127700  1
  Li  Li7  1  0.50020200  0.17949500  0.89124300  1
  Ti  Ti8  1  0.00253000  0.01432000  0.00520700  1
  Ti  Ti9  1  0.00250100  0.51430800  0.50519300  1
  Mn  Mn10  1  0.49870500  0.50054400  0.00008900  1
  Mn  Mn11  1  0.49882800  0.00050900  0.50008200  1
  W  W12  1  0.00110700  0.75207200  0.24703000  1
  W  W13  1  0.00109100  0.25206000  0.74702100  1
  W  W14  1  0.49894800  0.75582400  0.75605400  1
  W  W15  1  0.49897400  0.25582200  0.25602900  1
  O  O16  1  0.29997300  0.61117700  0.17996400  1
  O  O17  1  0.29982500  0.11105800  0.67990300  1
  O  O18  1  0.11982000  0.86170400  0.11714200  1
  O  O19  1  0.11983100  0.36170200  0.61714400  1
  O  O20  1  0.31964300  0.11253900  0.06415500  1
  O  O21  1  0.31956800  0.61255100  0.56417300  1
  O  O22  1  0.19887400  0.86277400  0.43097300  1
  O  O23  1  0.19888100  0.36277600  0.93096800  1
  O  O24  1  0.80544700  0.11701600  0.18360300  1
  O  O25  1  0.80542700  0.61700300  0.68359600  1
  O  O26  1  0.38170100  0.11177100  0.36612400  1
  O  O27  1  0.38153900  0.61180000  0.86612100  1
  O  O28  1  0.61705300  0.36548100  0.11906800  1
  O  O29  1  0.61700800  0.86548600  0.61911600  1
  O  O30  1  0.18456800  0.36138600  0.31041800  1
  O  O31  1  0.18455900  0.86138800  0.81041900  1
  O  O32  1  0.80792600  0.61636700  0.06540300  1
  O  O33  1  0.80780600  0.11644800  0.56534300  1
  O  O34  1  0.69188700  0.36474600  0.43326500  1
  O  O35  1  0.69189000  0.86473800  0.93326700  1
  O  O36  1  0.88285900  0.61634600  0.36821500  1
  O  O37  1  0.88289300  0.11639300  0.86825200  1
  O  O38  1  0.68864500  0.86660700  0.31662800  1
  O  O39  1  0.68865700  0.36659800  0.81662800  1
