# generated using pymatgen
data_LiBiP2O7
_symmetry_space_group_name_H-M   'P 1'
_cell_length_a   10.36410100
_cell_length_b   7.57068800
_cell_length_c   8.07028241
_cell_angle_alpha   89.33143677
_cell_angle_beta   90.00000000
_cell_angle_gamma   90.00000000
_symmetry_Int_Tables_number   1
_chemical_formula_structural   LiBiP2O7
_chemical_formula_sum   'Li4 Bi4 P8 O28'
_cell_volume   633.17848711
_cell_formula_units_Z   4
loop_
 _symmetry_equiv_pos_site_id
 _symmetry_equiv_pos_as_xyz
  1  'x, y, z'
loop_
 _atom_site_type_symbol
 _atom_site_label
 _atom_site_symmetry_multiplicity
 _atom_site_fract_x
 _atom_site_fract_y
 _atom_site_fract_z
 _atom_site_occupancy
  Li  Li0  1  0.60325900  0.30800100  0.96695100  1
  Li  Li1  1  0.89674100  0.80800100  0.96695100  1
  Li  Li2  1  0.10325900  0.19199900  0.03304900  1
  Li  Li3  1  0.39674100  0.69199900  0.03304900  1
  Bi  Bi4  1  0.35429300  0.38787500  0.63374900  1
  Bi  Bi5  1  0.14570700  0.88787500  0.63374900  1
  Bi  Bi6  1  0.85429300  0.11212500  0.36625100  1
  Bi  Bi7  1  0.64570700  0.61212500  0.36625100  1
  P  P8  1  0.40607800  0.01803000  0.79815900  1
  P  P9  1  0.09392200  0.51803000  0.79815900  1
  P  P10  1  0.96063400  0.19608900  0.70193300  1
  P  P11  1  0.53936600  0.69608900  0.70193300  1
  P  P12  1  0.46063400  0.30391100  0.29806700  1
  P  P13  1  0.03936600  0.80391100  0.29806700  1
  P  P14  1  0.90607800  0.48197000  0.20184100  1
  P  P15  1  0.59392200  0.98197000  0.20184100  1
  O  O16  1  0.18583700  0.40662100  0.90384600  1
  O  O17  1  0.31416300  0.90662100  0.90384600  1
  O  O18  1  0.45935500  0.19204200  0.86040600  1
  O  O19  1  0.04064500  0.69204200  0.86040600  1
  O  O20  1  0.02290000  0.07790800  0.83668400  1
  O  O21  1  0.47710000  0.57790800  0.83668400  1
  O  O22  1  0.96736800  0.39911500  0.75746900  1
  O  O23  1  0.53263200  0.89911500  0.75746900  1
  O  O24  1  0.82100700  0.15669600  0.65760500  1
  O  O25  1  0.67899300  0.65669600  0.65760500  1
  O  O26  1  0.33611700  0.06223800  0.62889100  1
  O  O27  1  0.16388300  0.56223800  0.62889100  1
  O  O28  1  0.04554600  0.17236100  0.54119300  1
  O  O29  1  0.45445400  0.67236100  0.54119300  1
  O  O30  1  0.54554600  0.32763900  0.45880700  1
  O  O31  1  0.95445400  0.82763900  0.45880700  1
  O  O32  1  0.83611700  0.43776200  0.37110900  1
  O  O33  1  0.66388300  0.93776200  0.37110900  1
  O  O34  1  0.32100700  0.34330400  0.34239500  1
  O  O35  1  0.17899300  0.84330400  0.34239500  1
  O  O36  1  0.46736800  0.10088500  0.24253100  1
  O  O37  1  0.03263200  0.60088500  0.24253100  1
  O  O38  1  0.52290000  0.42209200  0.16331600  1
  O  O39  1  0.97710000  0.92209200  0.16331600  1
  O  O40  1  0.95935500  0.30795800  0.13959400  1
  O  O41  1  0.54064500  0.80795800  0.13959400  1
  O  O42  1  0.68583700  0.09337900  0.09615400  1
  O  O43  1  0.81416300  0.59337900  0.09615400  1
