# generated using pymatgen
data_Li2FePCO7
_symmetry_space_group_name_H-M   'P 1'
_cell_length_a   8.20558070
_cell_length_b   9.30103589
_cell_length_c   8.26509305
_cell_angle_alpha   107.16406386
_cell_angle_beta   76.24199567
_cell_angle_gamma   74.88585082
_symmetry_Int_Tables_number   1
_chemical_formula_structural   Li2FePCO7
_chemical_formula_sum   'Li8 Fe4 P4 C4 O28'
_cell_volume   546.92717598
_cell_formula_units_Z   4
loop_
 _symmetry_equiv_pos_site_id
 _symmetry_equiv_pos_as_xyz
  1  'x, y, z'
loop_
 _atom_site_type_symbol
 _atom_site_label
 _atom_site_symmetry_multiplicity
 _atom_site_fract_x
 _atom_site_fract_y
 _atom_site_fract_z
 _atom_site_occupancy
  Li  Li0  1  0.68820800  0.10148000  0.58115800  1
  Li  Li1  1  0.18832400  0.10140200  0.08109200  1
  Li  Li2  1  0.81182500  0.89852400  0.91873600  1
  Li  Li3  1  0.31186600  0.89854500  0.41878100  1
  Li  Li4  1  0.74515400  0.27203600  0.28764100  1
  Li  Li5  1  0.24526200  0.27190600  0.78761800  1
  Li  Li6  1  0.75472400  0.72811400  0.21242100  1
  Li  Li7  1  0.25485400  0.72811300  0.71250300  1
  Fe  Fe8  1  0.30990900  0.33042600  0.43543900  1
  Fe  Fe9  1  0.69021600  0.66946000  0.56458500  1
  Fe  Fe10  1  0.80986700  0.33033100  0.93531700  1
  Fe  Fe11  1  0.18988800  0.66966300  0.06481800  1
  P  P12  1  0.54475700  0.41854300  0.69853400  1
  P  P13  1  0.04494700  0.41842000  0.19832300  1
  P  P14  1  0.95505300  0.58148700  0.80168800  1
  P  P15  1  0.45505000  0.58151300  0.30161500  1
  C  C16  1  0.02531600  0.04763600  0.74527100  1
  C  C17  1  0.52530000  0.04768300  0.24528500  1
  C  C18  1  0.47490200  0.95224900  0.75451500  1
  C  C19  1  0.97471700  0.95245800  0.25473400  1
  O  O20  1  0.87313800  0.07440000  0.86753300  1
  O  O21  1  0.37312600  0.07445400  0.36758600  1
  O  O22  1  0.62708900  0.92543300  0.63223300  1
  O  O23  1  0.12686600  0.92560700  0.13238900  1
  O  O24  1  0.86078800  0.09147500  0.35594400  1
  O  O25  1  0.36092000  0.09124900  0.85569800  1
  O  O26  1  0.63924800  0.90874700  0.14405800  1
  O  O27  1  0.13933100  0.90864700  0.64411800  1
  O  O28  1  0.04903600  0.17910100  0.73424100  1
  O  O29  1  0.54901400  0.17919900  0.23433700  1
  O  O30  1  0.45113500  0.82080600  0.76559100  1
  O  O31  1  0.95090300  0.82103600  0.26582800  1
  O  O32  1  0.45823200  0.29985600  0.60935200  1
  O  O33  1  0.95834600  0.29983300  0.10921200  1
  O  O34  1  0.04157000  0.70013300  0.89086700  1
  O  O35  1  0.54168600  0.70012700  0.39068200  1
  O  O36  1  0.66993700  0.31845200  0.77056400  1
  O  O37  1  0.17008900  0.31850100  0.27048100  1
  O  O38  1  0.82994500  0.68149000  0.72953000  1
  O  O39  1  0.32986900  0.68150300  0.22955300  1
  O  O40  1  0.10007800  0.42542900  0.65663900  1
  O  O41  1  0.59996500  0.42543400  0.15652800  1
  O  O42  1  0.39981600  0.57465200  0.84347700  1
  O  O43  1  0.89997400  0.57452200  0.34338400  1
  O  O44  1  0.65825000  0.46067700  0.55113300  1
  O  O45  1  0.15832300  0.46067900  0.05106400  1
  O  O46  1  0.84156600  0.53925900  0.94893600  1
  O  O47  1  0.34161900  0.53931000  0.44896600  1
