# generated using pymatgen
data_Li4Ni7O12
_symmetry_space_group_name_H-M   'P 1'
_cell_length_a   4.98630370
_cell_length_b   13.29732256
_cell_length_c   9.68066244
_cell_angle_alpha   99.38997688
_cell_angle_beta   94.63821604
_cell_angle_gamma   79.20411421
_symmetry_Int_Tables_number   1
_chemical_formula_structural   Li4Ni7O12
_chemical_formula_sum   'Li12 Ni21 O36'
_cell_volume   621.22377955
_cell_formula_units_Z   3
loop_
 _symmetry_equiv_pos_site_id
 _symmetry_equiv_pos_as_xyz
  1  'x, y, z'
loop_
 _atom_site_type_symbol
 _atom_site_label
 _atom_site_symmetry_multiplicity
 _atom_site_fract_x
 _atom_site_fract_y
 _atom_site_fract_z
 _atom_site_occupancy
  Li  Li0  1  0.78243700  0.93756700  0.00247700  1
  Li  Li1  1  0.80687200  0.64170200  0.24520400  1
  Li  Li2  1  0.72565800  0.55456700  0.49397900  1
  Li  Li3  1  0.60454600  0.78001700  0.49587900  1
  Li  Li4  1  0.44783900  0.61304900  0.00531500  1
  Li  Li5  1  0.47616400  0.30850700  0.24237900  1
  Li  Li6  1  0.14150400  0.97275500  0.25559600  1
  Li  Li7  1  0.40345000  0.21555800  0.49561500  1
  Li  Li8  1  0.05264500  0.89269200  0.49399400  1
  Li  Li9  1  0.27514700  0.44397300  0.49463900  1
  Li  Li10  1  0.23403800  0.05143600  0.00586700  1
  Li  Li11  1  0.11052800  0.28613600  0.00343200  1
  Ni  Ni12  1  0.99589700  0.50379600  0.00529400  1
  Ni  Ni13  1  0.97229100  0.80565100  0.75141400  1
  Ni  Ni14  1  0.90629500  0.41887100  0.25116700  1
  Ni  Ni15  1  0.69154700  0.86048700  0.24803300  1
  Ni  Ni16  1  0.83025100  0.32984200  0.49595600  1
  Ni  Ni17  1  0.85650100  0.02846500  0.74993000  1
  Ni  Ni18  1  0.75015500  0.25005000  0.75076800  1
  Ni  Ni19  1  0.66670100  0.16974200  0.00389000  1
  Ni  Ni20  1  0.64076600  0.47050000  0.75045500  1
  Ni  Ni21  1  0.52730900  0.69551600  0.74951000  1
  Ni  Ni22  1  0.41393800  0.91652100  0.75118800  1
  Ni  Ni23  1  0.32836100  0.83234300  0.00277000  1
  Ni  Ni24  1  0.58645300  0.08347200  0.24877000  1
  Ni  Ni25  1  0.36216200  0.52650000  0.25154300  1
  Ni  Ni26  1  0.23957100  0.75096100  0.24985200  1
  Ni  Ni27  1  0.48969800  0.00136000  0.49641700  1
  Ni  Ni28  1  0.15681300  0.66810100  0.49680000  1
  Ni  Ni29  1  0.30322900  0.13721800  0.75114700  1
  Ni  Ni30  1  0.19437800  0.36307600  0.75064200  1
  Ni  Ni31  1  0.07830600  0.58402700  0.74997300  1
  Ni  Ni32  1  0.03185400  0.19405600  0.24932600  1
  O  O33  1  0.93132100  0.76998700  0.36252900  1
  O  O34  1  0.78807200  0.98069300  0.35711400  1
  O  O35  1  0.84594600  0.67566100  0.63747900  1
  O  O36  1  0.95043500  0.45131300  0.61751600  1
  O  O37  1  0.71443300  0.90752800  0.63577200  1
  O  O38  1  0.77786100  0.58879000  0.86160000  1
  O  O39  1  0.82226500  0.27887300  0.13224100  1
  O  O40  1  0.48262400  0.94961400  0.13295600  1
  O  O41  1  0.67758800  0.51156500  0.14338000  1
  O  O42  1  0.90197600  0.37768600  0.86891600  1
  O  O43  1  0.98220300  0.15735100  0.85847200  1
  O  O44  1  0.62715000  0.82023000  0.85719200  1
  O  O45  1  0.89330800  0.08240100  0.13772700  1
  O  O46  1  0.54290100  0.74692200  0.14304300  1
  O  O47  1  0.60132000  0.43503700  0.36409300  1
  O  O48  1  0.73333200  0.21124600  0.36590500  1
  O  O49  1  0.39802400  0.87369700  0.36772600  1
  O  O50  1  0.45582700  0.64985900  0.35984300  1
  O  O51  1  0.52411100  0.34275000  0.63749900  1
  O  O52  1  0.59331300  0.12356600  0.63336000  1
  O  O53  1  0.28405300  0.79034900  0.62278500  1
  O  O54  1  0.38617800  0.57787700  0.63846500  1
  O  O55  1  0.44589500  0.25196200  0.86132300  1
  O  O56  1  0.11573000  0.92862300  0.86963000  1
  O  O57  1  0.15399000  0.61458800  0.13573300  1
  O  O58  1  0.34884700  0.17392900  0.13996000  1
  O  O59  1  0.55130900  0.04623000  0.88263000  1
  O  O60  1  0.01048800  0.84473100  0.14247400  1
  O  O61  1  0.23867400  0.70751500  0.86560100  1
  O  O62  1  0.29274600  0.48734200  0.85543300  1
  O  O63  1  0.21111300  0.41539700  0.14366100  1
  O  O64  1  0.28301400  0.10247700  0.35908200  1
  O  O65  1  0.06931700  0.54038200  0.36944200  1
  O  O66  1  0.12108400  0.31677600  0.36224600  1
  O  O67  1  0.20167800  0.01235000  0.64204300  1
  O  O68  1  0.05728000  0.24909500  0.64274700  1
