# generated using pymatgen
data_LiSiBiO4
_symmetry_space_group_name_H-M   'P 1'
_cell_length_a   5.50464300
_cell_length_b   7.25402800
_cell_length_c   10.47141700
_cell_angle_alpha   90.00000000
_cell_angle_beta   90.00000000
_cell_angle_gamma   90.00000000
_symmetry_Int_Tables_number   1
_chemical_formula_structural   LiSiBiO4
_chemical_formula_sum   'Li4 Si4 Bi4 O16'
_cell_volume   418.13241870
_cell_formula_units_Z   4
loop_
 _symmetry_equiv_pos_site_id
 _symmetry_equiv_pos_as_xyz
  1  'x, y, z'
loop_
 _atom_site_type_symbol
 _atom_site_label
 _atom_site_symmetry_multiplicity
 _atom_site_fract_x
 _atom_site_fract_y
 _atom_site_fract_z
 _atom_site_occupancy
  Li  Li0  1  0.24853000  0.49196000  0.15710600  1
  Li  Li1  1  0.74853000  0.99196000  0.34289400  1
  Li  Li2  1  0.24853000  0.00804000  0.65710600  1
  Li  Li3  1  0.74853000  0.50804000  0.84289400  1
  Si  Si4  1  0.75107900  0.73908600  0.09032200  1
  Si  Si5  1  0.25107900  0.23908600  0.40967800  1
  Si  Si6  1  0.75107900  0.76091400  0.59032200  1
  Si  Si7  1  0.25107900  0.26091400  0.90967800  1
  Bi  Bi8  1  0.24999400  0.98094400  0.15828800  1
  Bi  Bi9  1  0.74999400  0.48094400  0.34171200  1
  Bi  Bi10  1  0.24999400  0.51905600  0.65828800  1
  Bi  Bi11  1  0.74999400  0.01905600  0.84171200  1
  O  O12  1  0.19346000  0.25674200  0.06397400  1
  O  O13  1  0.03825500  0.70574900  0.12469800  1
  O  O14  1  0.59142900  0.57287900  0.15878400  1
  O  O15  1  0.67310300  0.94228800  0.15115800  1
  O  O16  1  0.17310300  0.44228800  0.34884200  1
  O  O17  1  0.09142900  0.07287900  0.34121600  1
  O  O18  1  0.53825500  0.20574900  0.37530200  1
  O  O19  1  0.69346000  0.75674200  0.43602600  1
  O  O20  1  0.19346000  0.24325800  0.56397400  1
  O  O21  1  0.03825500  0.79425100  0.62469800  1
  O  O22  1  0.59142900  0.92712100  0.65878400  1
  O  O23  1  0.67310300  0.55771200  0.65115800  1
  O  O24  1  0.17310300  0.05771200  0.84884200  1
  O  O25  1  0.09142900  0.42712100  0.84121600  1
  O  O26  1  0.53825500  0.29425100  0.87530200  1
  O  O27  1  0.69346000  0.74325800  0.93602600  1
