# generated using pymatgen
data_LiAg2F4
_symmetry_space_group_name_H-M   'P 1'
_cell_length_a   7.00047800
_cell_length_b   6.06444200
_cell_length_c   11.20471233
_cell_angle_alpha   59.80361377
_cell_angle_beta   90.00000000
_cell_angle_gamma   90.00000000
_symmetry_Int_Tables_number   1
_chemical_formula_structural   LiAg2F4
_chemical_formula_sum   'Li4 Ag8 F16'
_cell_volume   411.13745723
_cell_formula_units_Z   4
loop_
 _symmetry_equiv_pos_site_id
 _symmetry_equiv_pos_as_xyz
  1  'x, y, z'
loop_
 _atom_site_type_symbol
 _atom_site_label
 _atom_site_symmetry_multiplicity
 _atom_site_fract_x
 _atom_site_fract_y
 _atom_site_fract_z
 _atom_site_occupancy
  Li  Li0  1  0.28032600  0.89699200  0.93177000  1
  Li  Li1  1  0.78032600  0.10300800  0.56823000  1
  Li  Li2  1  0.21967400  0.89699200  0.43177000  1
  Li  Li3  1  0.71967400  0.10300800  0.06823000  1
  Ag  Ag4  1  0.00796000  0.50471600  0.27653400  1
  Ag  Ag5  1  0.32940600  0.24612300  0.55436200  1
  Ag  Ag6  1  0.50796000  0.49528400  0.22346600  1
  Ag  Ag7  1  0.82940600  0.75387700  0.94563800  1
  Ag  Ag8  1  0.17059400  0.24612300  0.05436200  1
  Ag  Ag9  1  0.49204000  0.50471600  0.77653400  1
  Ag  Ag10  1  0.67059400  0.75387700  0.44563800  1
  Ag  Ag11  1  0.99204000  0.49528400  0.72346600  1
  F  F12  1  0.74461300  0.75960300  0.22016900  1
  F  F13  1  0.15703700  0.84313200  0.10070300  1
  F  F14  1  0.62449400  0.32462100  0.59986600  1
  F  F15  1  0.02618600  0.24219400  0.51084300  1
  F  F16  1  0.52618600  0.75780600  0.98915700  1
  F  F17  1  0.65703700  0.15686800  0.39929700  1
  F  F18  1  0.12449400  0.67537900  0.90013400  1
  F  F19  1  0.24461300  0.24039700  0.27983100  1
  F  F20  1  0.75538700  0.75960300  0.72016900  1
  F  F21  1  0.87550600  0.32462100  0.09986600  1
  F  F22  1  0.34296300  0.84313200  0.60070300  1
  F  F23  1  0.47381400  0.24219400  0.01084300  1
  F  F24  1  0.97381400  0.75780600  0.48915700  1
  F  F25  1  0.37550600  0.67537900  0.40013400  1
  F  F26  1  0.84296300  0.15686800  0.89929700  1
  F  F27  1  0.25538700  0.24039700  0.77983100  1
