# generated using pymatgen
data_Li4V3Ni2Sn3O16
_symmetry_space_group_name_H-M   'P 1'
_cell_length_a   6.08889500
_cell_length_b   6.09649018
_cell_length_c   9.78602589
_cell_angle_alpha   90.48993484
_cell_angle_beta   89.83796662
_cell_angle_gamma   119.79418567
_symmetry_Int_Tables_number   1
_chemical_formula_structural   Li4V3Ni2Sn3O16
_chemical_formula_sum   'Li4 V3 Ni2 Sn3 O16'
_cell_volume   315.23603588
_cell_formula_units_Z   1
loop_
 _symmetry_equiv_pos_site_id
 _symmetry_equiv_pos_as_xyz
  1  'x, y, z'
loop_
 _atom_site_type_symbol
 _atom_site_label
 _atom_site_symmetry_multiplicity
 _atom_site_fract_x
 _atom_site_fract_y
 _atom_site_fract_z
 _atom_site_occupancy
  Li  Li0  1  0.32508900  0.65199500  0.88728400  1
  Li  Li1  1  0.01009600  0.02670700  0.99504200  1
  Li  Li2  1  0.00738200  0.01781200  0.50145600  1
  Li  Li3  1  0.66036300  0.32698800  0.39378600  1
  V  V4  1  0.16649400  0.33710800  0.21614000  1
  V  V5  1  0.33430700  0.17404200  0.71142900  1
  V  V6  1  0.81391600  0.15642300  0.71915900  1
  Ni  Ni7  1  0.33857900  0.66424600  0.49089300  1
  Ni  Ni8  1  0.67422400  0.33564600  0.98818300  1
  Sn  Sn9  1  0.66076000  0.82968200  0.21530000  1
  Sn  Sn10  1  0.16869000  0.83093100  0.21384600  1
  Sn  Sn11  1  0.83339600  0.65752000  0.71352100  1
  O  O12  1  0.68495500  0.84553100  0.60258400  1
  O  O13  1  0.47620300  0.96369900  0.34108600  1
  O  O14  1  0.32780900  0.65411500  0.09765400  1
  O  O15  1  0.00464200  0.01088500  0.31857700  1
  O  O16  1  0.00276200  0.00908800  0.81269600  1
  O  O17  1  0.17909800  0.86323400  0.60468400  1
  O  O18  1  0.47680400  0.51013100  0.33577800  1
  O  O19  1  0.03563400  0.49866600  0.33242000  1
  O  O20  1  0.84808900  0.68998000  0.09280400  1
  O  O21  1  0.15298600  0.31686800  0.61329600  1
  O  O22  1  0.96208100  0.47336700  0.83489700  1
  O  O23  1  0.49788300  0.45296900  0.83296200  1
  O  O24  1  0.66093300  0.31737300  0.60205600  1
  O  O25  1  0.84666400  0.17014700  0.10559900  1
  O  O26  1  0.53212800  0.03452300  0.82757300  1
  O  O27  1  0.31832900  0.18032300  0.10713900  1
