# generated using pymatgen
data_Li2Mn3(PO4)3
_symmetry_space_group_name_H-M   'P 1'
_cell_length_a   8.73217736
_cell_length_b   8.73217736
_cell_length_c   6.67910763
_cell_angle_alpha   71.55650184
_cell_angle_beta   71.55650184
_cell_angle_gamma   92.48843911
_symmetry_Int_Tables_number   1
_chemical_formula_structural   Li2Mn3(PO4)3
_chemical_formula_sum   'Li4 Mn6 P6 O24'
_cell_volume   452.44866452
_cell_formula_units_Z   2
loop_
 _symmetry_equiv_pos_site_id
 _symmetry_equiv_pos_as_xyz
  1  'x, y, z'
loop_
 _atom_site_type_symbol
 _atom_site_label
 _atom_site_symmetry_multiplicity
 _atom_site_fract_x
 _atom_site_fract_y
 _atom_site_fract_z
 _atom_site_occupancy
  Li  Li0  1  0.50000000  0.50000000  0.50000000  1
  Li  Li1  1  0.50000000  0.50000000  0.00000000  1
  Li  Li2  1  0.99003000  0.00997000  0.75000000  1
  Li  Li3  1  0.00997000  0.99003000  0.25000000  1
  Mn  Mn4  1  0.06278200  0.38012200  0.36236200  1
  Mn  Mn5  1  0.38012200  0.06278200  0.86236200  1
  Mn  Mn6  1  0.27369600  0.72630400  0.75000000  1
  Mn  Mn7  1  0.72630400  0.27369600  0.25000000  1
  Mn  Mn8  1  0.61987800  0.93721800  0.13763800  1
  Mn  Mn9  1  0.93721800  0.61987800  0.63763800  1
  P  P10  1  0.12317800  0.33794400  0.87469600  1
  P  P11  1  0.33794400  0.12317800  0.37469600  1
  P  P12  1  0.70747000  0.29253000  0.75000000  1
  P  P13  1  0.29253000  0.70747000  0.25000000  1
  P  P14  1  0.66205600  0.87682200  0.62530400  1
  P  P15  1  0.87682200  0.66205600  0.12530400  1
  O  O16  1  0.15811000  0.15955100  0.90311400  1
  O  O17  1  0.15955100  0.15811000  0.40311400  1
  O  O18  1  0.39603700  0.04397100  0.19012400  1
  O  O19  1  0.04397100  0.39603700  0.69012400  1
  O  O20  1  0.00572400  0.67424800  0.89520300  1
  O  O21  1  0.67424800  0.00572400  0.39520300  1
  O  O22  1  0.46217200  0.27844900  0.30995700  1
  O  O23  1  0.27844900  0.46217200  0.80995700  1
  O  O24  1  0.53429500  0.27530800  0.73305600  1
  O  O25  1  0.27530800  0.53429500  0.23305600  1
  O  O26  1  0.73332600  0.17475300  0.96235500  1
  O  O27  1  0.17475300  0.73332600  0.46235500  1
  O  O28  1  0.26667400  0.82524700  0.03764500  1
  O  O29  1  0.82524700  0.26667400  0.53764500  1
  O  O30  1  0.72469200  0.46570500  0.76694400  1
  O  O31  1  0.46570500  0.72469200  0.26694400  1
  O  O32  1  0.53782800  0.72155100  0.69004300  1
  O  O33  1  0.72155100  0.53782800  0.19004300  1
  O  O34  1  0.32575200  0.99427600  0.60479700  1
  O  O35  1  0.99427600  0.32575200  0.10479700  1
  O  O36  1  0.95602900  0.60396300  0.30987600  1
  O  O37  1  0.60396300  0.95602900  0.80987600  1
  O  O38  1  0.84189000  0.84044900  0.09688600  1
  O  O39  1  0.84044900  0.84189000  0.59688600  1
