# generated using pymatgen
data_Li4Mn2NbNi3(PO4)6
_symmetry_space_group_name_H-M   'P 1'
_cell_length_a   8.54865700
_cell_length_b   8.64067676
_cell_length_c   8.65232849
_cell_angle_alpha   62.05682258
_cell_angle_beta   62.44966841
_cell_angle_gamma   62.33511042
_symmetry_Int_Tables_number   1
_chemical_formula_structural   Li4Mn2NbNi3(PO4)6
_chemical_formula_sum   'Li4 Mn2 Nb1 Ni3 P6 O24'
_cell_volume   474.91641733
_cell_formula_units_Z   1
loop_
 _symmetry_equiv_pos_site_id
 _symmetry_equiv_pos_as_xyz
  1  'x, y, z'
loop_
 _atom_site_type_symbol
 _atom_site_label
 _atom_site_symmetry_multiplicity
 _atom_site_fract_x
 _atom_site_fract_y
 _atom_site_fract_z
 _atom_site_occupancy
  Li  Li0  1  0.25636800  0.64551300  0.85034500  1
  Li  Li1  1  0.69481400  0.35631500  0.15973400  1
  Li  Li2  1  0.35925200  0.15702700  0.69484500  1
  Li  Li3  1  0.15811200  0.69095800  0.35988300  1
  Mn  Mn4  1  0.98527100  0.00303500  0.99992200  1
  Mn  Mn5  1  0.51332200  0.50064800  0.49613800  1
  Nb  Nb6  1  0.14668700  0.14861100  0.15217400  1
  Ni  Ni7  1  0.85747700  0.85297500  0.85116900  1
  Ni  Ni8  1  0.64360000  0.64903700  0.64617600  1
  Ni  Ni9  1  0.35293200  0.34722600  0.35016400  1
  P  P10  1  0.94691300  0.55851300  0.25522700  1
  P  P11  1  0.55919900  0.25093200  0.94776400  1
  P  P12  1  0.25201600  0.94932200  0.55892600  1
  P  P13  1  0.74807600  0.04345900  0.46033800  1
  P  P14  1  0.45122600  0.74614900  0.04258800  1
  P  P15  1  0.05340800  0.46213200  0.75035000  1
  O  O16  1  0.88454900  0.50592600  0.70509800  1
  O  O17  1  0.69106600  0.89102000  0.48439200  1
  O  O18  1  0.94223100  0.73899600  0.08942500  1
  O  O19  1  0.45075400  0.69644000  0.89508600  1
  O  O20  1  0.99092900  0.39411400  0.19156500  1
  O  O21  1  0.75825800  0.56766900  0.40716200  1
  O  O22  1  0.74688200  0.09884500  0.91910000  1
  O  O23  1  0.54264100  0.41632500  0.76865700  1
  O  O24  1  0.82328400  0.00860600  0.60384400  1
  O  O25  1  0.40233300  0.75687600  0.56888300  1
  O  O26  1  0.89602900  0.08457100  0.25487300  1
  O  O27  1  0.60979600  0.81094400  0.98907900  1
  O  O28  1  0.39548000  0.17993800  0.99913600  1
  O  O29  1  0.10124200  0.92318900  0.75058800  1
  O  O30  1  0.58844000  0.23773400  0.44241700  1
  O  O31  1  0.18366900  0.99314000  0.39900100  1
  O  O32  1  0.44448400  0.58415800  0.23399800  1
  O  O33  1  0.24996300  0.89675100  0.09152900  1
  O  O34  1  0.24302100  0.43753500  0.58727600  1
  O  O35  1  0.04611100  0.60131300  0.81671000  1
  O  O36  1  0.52912900  0.30711200  0.10547500  1
  O  O37  1  0.08312700  0.25782500  0.90027500  1
  O  O38  1  0.31287900  0.10511800  0.52549500  1
  O  O39  1  0.10502800  0.52100400  0.31819200  1
