# generated using pymatgen
data_Li3MnV(PO4)3
_symmetry_space_group_name_H-M   'P 1'
_cell_length_a   8.50557394
_cell_length_b   8.50557394
_cell_length_c   8.61602224
_cell_angle_alpha   61.68041154
_cell_angle_beta   61.68041154
_cell_angle_gamma   63.15911734
_symmetry_Int_Tables_number   1
_chemical_formula_structural   Li3MnV(PO4)3
_chemical_formula_sum   'Li6 Mn2 V2 P6 O24'
_cell_volume   461.96143768
_cell_formula_units_Z   2
loop_
 _symmetry_equiv_pos_site_id
 _symmetry_equiv_pos_as_xyz
  1  'x, y, z'
loop_
 _atom_site_type_symbol
 _atom_site_label
 _atom_site_symmetry_multiplicity
 _atom_site_fract_x
 _atom_site_fract_y
 _atom_site_fract_z
 _atom_site_occupancy
  Li  Li0  1  0.12851000  0.25216800  0.84332200  1
  Li  Li1  1  0.50048700  0.99686400  0.99877000  1
  Li  Li2  1  0.25216800  0.12851000  0.34332200  1
  Li  Li3  1  0.74121600  0.87234300  0.65857500  1
  Li  Li4  1  0.99686400  0.50048700  0.49877000  1
  Li  Li5  1  0.87234300  0.74121600  0.15857500  1
  Mn  Mn6  1  0.36211300  0.85699700  0.85026900  1
  Mn  Mn7  1  0.85699700  0.36211300  0.35026900  1
  V  V8  1  0.14441800  0.63652000  0.64467300  1
  V  V9  1  0.63652000  0.14441800  0.14467300  1
  P  P10  1  0.75166800  0.54975400  0.96539200  1
  P  P11  1  0.05227500  0.94654200  0.24837000  1
  P  P12  1  0.45138600  0.25075700  0.53552300  1
  P  P13  1  0.54975400  0.75166800  0.46539200  1
  P  P14  1  0.94654200  0.05227500  0.74837000  1
  P  P15  1  0.25075700  0.45138600  0.03552300  1
  O  O16  1  0.18713700  0.46435600  0.88864100  1
  O  O17  1  0.10749900  0.03351200  0.79708800  1
  O  O18  1  0.31779400  0.61604900  0.97590600  1
  O  O19  1  0.06288100  0.76002700  0.41677100  1
  O  O20  1  0.61132800  0.74544000  0.92488000  1
  O  O21  1  0.25659200  0.39610100  0.57585900  1
  O  O22  1  0.45288100  0.08616800  0.72769600  1
  O  O23  1  0.03351200  0.10749900  0.29708800  1
  O  O24  1  0.76002700  0.06288100  0.91677100  1
  O  O25  1  0.38587800  0.68211200  0.52792300  1
  O  O26  1  0.08616800  0.45288100  0.22769600  1
  O  O27  1  0.53453400  0.81481300  0.61521800  1
  O  O28  1  0.46435600  0.18713700  0.38864100  1
  O  O29  1  0.91574800  0.54142000  0.77591700  1
  O  O30  1  0.61604900  0.31779400  0.47590600  1
  O  O31  1  0.23724700  0.93551900  0.07710600  1
  O  O32  1  0.97722100  0.88372600  0.70210100  1
  O  O33  1  0.54142000  0.91574800  0.27591700  1
  O  O34  1  0.74544000  0.61132800  0.42488000  1
  O  O35  1  0.39610100  0.25659200  0.07585900  1
  O  O36  1  0.93551900  0.23724700  0.57710600  1
  O  O37  1  0.68211200  0.38587800  0.02792300  1
  O  O38  1  0.88372600  0.97722100  0.20210100  1
  O  O39  1  0.81481300  0.53453400  0.11521800  1
