# generated using pymatgen
data_LiFeF4
_symmetry_space_group_name_H-M   'P 1'
_cell_length_a   4.85545300
_cell_length_b   5.70759300
_cell_length_c   10.17691438
_cell_angle_alpha   84.96356124
_cell_angle_beta   90.00000000
_cell_angle_gamma   90.00000000
_symmetry_Int_Tables_number   1
_chemical_formula_structural   LiFeF4
_chemical_formula_sum   'Li4 Fe4 F16'
_cell_volume   280.94340709
_cell_formula_units_Z   4
loop_
 _symmetry_equiv_pos_site_id
 _symmetry_equiv_pos_as_xyz
  1  'x, y, z'
loop_
 _atom_site_type_symbol
 _atom_site_label
 _atom_site_symmetry_multiplicity
 _atom_site_fract_x
 _atom_site_fract_y
 _atom_site_fract_z
 _atom_site_occupancy
  Li  Li0  1  0.46019900  0.57771300  0.62831800  1
  Li  Li1  1  0.03980100  0.57771300  0.12831800  1
  Li  Li2  1  0.96019900  0.42228700  0.87168200  1
  Li  Li3  1  0.53980100  0.42228700  0.37168200  1
  Fe  Fe4  1  0.46739600  0.86365700  0.87450100  1
  Fe  Fe5  1  0.03260400  0.86365700  0.37450100  1
  Fe  Fe6  1  0.96739600  0.13634300  0.62549900  1
  Fe  Fe7  1  0.53260400  0.13634300  0.12549900  1
  F  F8  1  0.26222800  0.91768700  0.70614100  1
  F  F9  1  0.23777200  0.91768700  0.20614100  1
  F  F10  1  0.82191200  0.85176000  0.54414800  1
  F  F11  1  0.67808800  0.85176000  0.04414800  1
  F  F12  1  0.17950900  0.66777600  0.94949500  1
  F  F13  1  0.32049100  0.66777600  0.44949500  1
  F  F14  1  0.64617600  0.60882600  0.79997300  1
  F  F15  1  0.85382400  0.60882600  0.29997300  1
  F  F16  1  0.14617600  0.39117400  0.70002700  1
  F  F17  1  0.35382400  0.39117400  0.20002700  1
  F  F18  1  0.67950900  0.33222400  0.55050500  1
  F  F19  1  0.82049100  0.33222400  0.05050500  1
  F  F20  1  0.32191200  0.14824000  0.95585200  1
  F  F21  1  0.17808800  0.14824000  0.45585200  1
  F  F22  1  0.76222800  0.08231300  0.79385900  1
  F  F23  1  0.73777200  0.08231300  0.29385900  1
