# generated using pymatgen
data_LiFe2(BO3)2
_symmetry_space_group_name_H-M   'P 1'
_cell_length_a   5.27942700
_cell_length_b   9.05528919
_cell_length_c   11.39546071
_cell_angle_alpha   113.22936912
_cell_angle_beta   102.28251733
_cell_angle_gamma   90.36345045
_symmetry_Int_Tables_number   1
_chemical_formula_structural   LiFe2(BO3)2
_chemical_formula_sum   'Li4 Fe8 B8 O24'
_cell_volume   486.68039611
_cell_formula_units_Z   4
loop_
 _symmetry_equiv_pos_site_id
 _symmetry_equiv_pos_as_xyz
  1  'x, y, z'
loop_
 _atom_site_type_symbol
 _atom_site_label
 _atom_site_symmetry_multiplicity
 _atom_site_fract_x
 _atom_site_fract_y
 _atom_site_fract_z
 _atom_site_occupancy
  Li  Li0  1  0.73110300  0.39118100  0.12601100  1
  Li  Li1  1  0.51402200  0.84775600  0.33764000  1
  Li  Li2  1  0.73458000  0.08474500  0.84082900  1
  Li  Li3  1  0.22434600  0.58371400  0.83299900  1
  Fe  Fe4  1  0.99257600  0.97283600  0.62009700  1
  Fe  Fe5  1  0.73421400  0.04832800  0.11925600  1
  Fe  Fe6  1  0.50452600  0.51904800  0.36821800  1
  Fe  Fe7  1  0.74894300  0.43335900  0.87192100  1
  Fe  Fe8  1  0.22597000  0.56026500  0.11341700  1
  Fe  Fe9  1  0.48917900  0.47053700  0.62022400  1
  Fe  Fe10  1  0.03612200  0.03164400  0.36932100  1
  Fe  Fe11  1  0.25012800  0.93182000  0.87373900  1
  B  B12  1  0.98419900  0.30979700  0.62661000  1
  B  B13  1  0.73376900  0.72656700  0.12679800  1
  B  B14  1  0.53665500  0.18245500  0.36894300  1
  B  B15  1  0.75900900  0.76662100  0.86971900  1
  B  B16  1  0.48373300  0.80714100  0.62264400  1
  B  B17  1  0.23084500  0.22446300  0.12115200  1
  B  B18  1  0.00366600  0.68744500  0.36958300  1
  B  B19  1  0.26365900  0.26909100  0.87137500  1
  O  O20  1  0.96754900  0.21355200  0.11286300  1
  O  O21  1  0.88655800  0.87019700  0.15338800  1
  O  O22  1  0.83739700  0.57863500  0.08016200  1
  O  O23  1  0.83887500  0.55366500  0.34013200  1
  O  O24  1  0.91835300  0.84191900  0.42008400  1
  O  O25  1  0.75013900  0.16154400  0.31275500  1
  O  O26  1  0.74937300  0.34184200  0.66526400  1
  O  O27  1  0.49382900  0.73710400  0.15165300  1
  O  O28  1  0.37273100  0.37981500  0.17059800  1
  O  O29  1  0.54138500  0.64617700  0.56547700  1
  O  O30  1  0.66015800  0.93227700  0.64727900  1
  O  O31  1  0.36578000  0.09109500  0.07698200  1
  O  O32  1  0.65556500  0.91692100  0.91585100  1
  O  O33  1  0.40787200  0.05897400  0.37698300  1
  O  O34  1  0.45914500  0.34091500  0.42145600  1
  O  O35  1  0.58719900  0.62464700  0.82319300  1
  O  O36  1  0.52948000  0.26513200  0.88922800  1
  O  O37  1  0.25508500  0.67535600  0.34394100  1
  O  O38  1  0.24990400  0.83761700  0.66031600  1
  O  O39  1  0.04296500  0.15207100  0.57430600  1
  O  O40  1  0.15445800  0.43473800  0.64341000  1
  O  O41  1  0.15541200  0.41617700  0.90467900  1
  O  O42  1  0.09789100  0.12412800  0.82373600  1
  O  O43  1  0.01439300  0.75751300  0.86689000  1
