# generated using pymatgen
data_Li3CuF6
_symmetry_space_group_name_H-M   'P 1'
_cell_length_a   5.01789000
_cell_length_b   8.43376300
_cell_length_c   9.75658200
_cell_angle_alpha   90.00000000
_cell_angle_beta   90.00000000
_cell_angle_gamma   90.00000000
_symmetry_Int_Tables_number   1
_chemical_formula_structural   Li3CuF6
_chemical_formula_sum   'Li12 Cu4 F24'
_cell_volume   412.89557468
_cell_formula_units_Z   4
loop_
 _symmetry_equiv_pos_site_id
 _symmetry_equiv_pos_as_xyz
  1  'x, y, z'
loop_
 _atom_site_type_symbol
 _atom_site_label
 _atom_site_symmetry_multiplicity
 _atom_site_fract_x
 _atom_site_fract_y
 _atom_site_fract_z
 _atom_site_occupancy
  Li  Li0  1  0.49487200  0.45311600  0.10580300  1
  Li  Li1  1  0.00805500  0.85374000  0.12537900  1
  Li  Li2  1  0.50262000  0.04936000  0.14637100  1
  Li  Li3  1  0.00262000  0.54936000  0.35362900  1
  Li  Li4  1  0.50805500  0.35374000  0.37462100  1
  Li  Li5  1  0.99487200  0.95311600  0.39419700  1
  Li  Li6  1  0.49487200  0.04688400  0.60580300  1
  Li  Li7  1  0.00805500  0.64626000  0.62537900  1
  Li  Li8  1  0.50262000  0.45064000  0.64637100  1
  Li  Li9  1  0.00262000  0.95064000  0.85362900  1
  Li  Li10  1  0.50805500  0.14626000  0.87462100  1
  Li  Li11  1  0.99487200  0.54688400  0.89419700  1
  Cu  Cu12  1  0.99996400  0.23971600  0.12802100  1
  Cu  Cu13  1  0.49996400  0.73971600  0.37197900  1
  Cu  Cu14  1  0.99996400  0.26028400  0.62802100  1
  Cu  Cu15  1  0.49996400  0.76028400  0.87197900  1
  F  F16  1  0.82237700  0.08467100  0.01044300  1
  F  F17  1  0.32258900  0.24672200  0.02254500  1
  F  F18  1  0.84193900  0.40765300  0.02602900  1
  F  F19  1  0.14648600  0.05964400  0.22615500  1
  F  F20  1  0.68503000  0.23062100  0.23839700  1
  F  F21  1  0.18328100  0.38782900  0.24676500  1
  F  F22  1  0.68328100  0.88782900  0.25323500  1
  F  F23  1  0.18503000  0.73062100  0.26160300  1
  F  F24  1  0.64648600  0.55964400  0.27384500  1
  F  F25  1  0.34193900  0.90765300  0.47397100  1
  F  F26  1  0.82258900  0.74672200  0.47745500  1
  F  F27  1  0.32237700  0.58467100  0.48955700  1
  F  F28  1  0.82237700  0.41532900  0.51044300  1
  F  F29  1  0.32258900  0.25327800  0.52254500  1
  F  F30  1  0.84193900  0.09234700  0.52602900  1
  F  F31  1  0.14648600  0.44035600  0.72615500  1
  F  F32  1  0.68503000  0.26937900  0.73839700  1
  F  F33  1  0.18328100  0.11217100  0.74676500  1
  F  F34  1  0.68328100  0.61217100  0.75323500  1
  F  F35  1  0.18503000  0.76937900  0.76160300  1
  F  F36  1  0.64648600  0.94035600  0.77384500  1
  F  F37  1  0.34193900  0.59234700  0.97397100  1
  F  F38  1  0.82258900  0.75327800  0.97745500  1
  F  F39  1  0.32237700  0.91532900  0.98955700  1
