# generated using pymatgen
data_Li3MnAl2O6
_symmetry_space_group_name_H-M   'P 1'
_cell_length_a   10.33138300
_cell_length_b   5.92341400
_cell_length_c   9.91382181
_cell_angle_alpha   53.65043319
_cell_angle_beta   90.00000000
_cell_angle_gamma   90.00000000
_symmetry_Int_Tables_number   1
_chemical_formula_structural   Li3MnAl2O6
_chemical_formula_sum   'Li12 Mn4 Al8 O24'
_cell_volume   488.64315327
_cell_formula_units_Z   4
loop_
 _symmetry_equiv_pos_site_id
 _symmetry_equiv_pos_as_xyz
  1  'x, y, z'
loop_
 _atom_site_type_symbol
 _atom_site_label
 _atom_site_symmetry_multiplicity
 _atom_site_fract_x
 _atom_site_fract_y
 _atom_site_fract_z
 _atom_site_occupancy
  Li  Li0  1  0.50164600  0.21394500  0.13468100  1
  Li  Li1  1  0.84833300  0.18858400  0.12516600  1
  Li  Li2  1  0.49585600  0.73871500  0.61751100  1
  Li  Li3  1  0.34833300  0.81141600  0.37483400  1
  Li  Li4  1  0.99585600  0.26128500  0.88248900  1
  Li  Li5  1  0.00164600  0.78605500  0.36531900  1
  Li  Li6  1  0.99835400  0.21394500  0.63468100  1
  Li  Li7  1  0.00414400  0.73871500  0.11751100  1
  Li  Li8  1  0.65166700  0.18858400  0.62516600  1
  Li  Li9  1  0.50414400  0.26128500  0.38248900  1
  Li  Li10  1  0.15166700  0.81141600  0.87483400  1
  Li  Li11  1  0.49835400  0.78605500  0.86531900  1
  Mn  Mn12  1  0.16561800  0.71005500  0.62656700  1
  Mn  Mn13  1  0.66561800  0.28994500  0.87343300  1
  Mn  Mn14  1  0.33438200  0.71005500  0.12656700  1
  Mn  Mn15  1  0.83438200  0.28994500  0.37343300  1
  Al  Al16  1  0.16526300  0.21667900  0.11624800  1
  Al  Al17  1  0.84189100  0.70193400  0.62576500  1
  Al  Al18  1  0.66526300  0.78332100  0.38375200  1
  Al  Al19  1  0.34189100  0.29806600  0.87423500  1
  Al  Al20  1  0.65810900  0.70193400  0.12576500  1
  Al  Al21  1  0.33473700  0.21667900  0.61624800  1
  Al  Al22  1  0.15810900  0.29806600  0.37423500  1
  Al  Al23  1  0.83473700  0.78332100  0.88375200  1
  O  O24  1  0.17077300  0.97774600  0.38559600  1
  O  O25  1  0.82878300  0.49881000  0.86311500  1
  O  O26  1  0.52074200  0.93635600  0.37727200  1
  O  O27  1  0.49599900  0.43605300  0.87234200  1
  O  O28  1  0.19041400  0.46996600  0.86863100  1
  O  O29  1  0.81933200  0.92946400  0.38599800  1
  O  O30  1  0.31933200  0.07053600  0.11400200  1
  O  O31  1  0.69041400  0.53003400  0.63136900  1
  O  O32  1  0.99599900  0.56394700  0.62765800  1
  O  O33  1  0.02074200  0.06364400  0.12272800  1
  O  O34  1  0.67077300  0.02225400  0.11440400  1
  O  O35  1  0.32878300  0.50119000  0.63688500  1
  O  O36  1  0.67121700  0.49881000  0.36311500  1
  O  O37  1  0.32922700  0.97774600  0.88559600  1
  O  O38  1  0.97925800  0.93635600  0.87727200  1
  O  O39  1  0.00400100  0.43605300  0.37234200  1
  O  O40  1  0.30958600  0.46996600  0.36863100  1
  O  O41  1  0.68066800  0.92946400  0.88599800  1
  O  O42  1  0.18066800  0.07053600  0.61400200  1
  O  O43  1  0.80958600  0.53003400  0.13136900  1
  O  O44  1  0.50400100  0.56394700  0.12765800  1
  O  O45  1  0.47925800  0.06364400  0.62272800  1
  O  O46  1  0.17121700  0.50119000  0.13688500  1
  O  O47  1  0.82922700  0.02225400  0.61440400  1
