# generated using pymatgen
data_LiMnB2O5
_symmetry_space_group_name_H-M   'P 1'
_cell_length_a   11.45566300
_cell_length_b   5.47050600
_cell_length_c   11.76305447
_cell_angle_alpha   78.67418558
_cell_angle_beta   90.00000000
_cell_angle_gamma   90.00000000
_symmetry_Int_Tables_number   1
_chemical_formula_structural   LiMnB2O5
_chemical_formula_sum   'Li8 Mn8 B16 O40'
_cell_volume   722.81486011
_cell_formula_units_Z   8
loop_
 _symmetry_equiv_pos_site_id
 _symmetry_equiv_pos_as_xyz
  1  'x, y, z'
loop_
 _atom_site_type_symbol
 _atom_site_label
 _atom_site_symmetry_multiplicity
 _atom_site_fract_x
 _atom_site_fract_y
 _atom_site_fract_z
 _atom_site_occupancy
  Li  Li0  1  0.63901200  0.36783300  0.07903400  1
  Li  Li1  1  0.86098800  0.86783300  0.07903400  1
  Li  Li2  1  0.12138400  0.13078500  0.42211700  1
  Li  Li3  1  0.37861600  0.63078500  0.42211700  1
  Li  Li4  1  0.62138400  0.36921500  0.57788300  1
  Li  Li5  1  0.87861600  0.86921500  0.57788300  1
  Li  Li6  1  0.13901200  0.13216700  0.92096600  1
  Li  Li7  1  0.36098800  0.63216700  0.92096600  1
  Mn  Mn8  1  0.37683400  0.26410800  0.23458500  1
  Mn  Mn9  1  0.87625000  0.25361000  0.26335800  1
  Mn  Mn10  1  0.12316600  0.76410800  0.23458500  1
  Mn  Mn11  1  0.62375000  0.75361000  0.26335800  1
  Mn  Mn12  1  0.37625000  0.24639000  0.73664200  1
  Mn  Mn13  1  0.87683400  0.23589200  0.76541500  1
  Mn  Mn14  1  0.12375000  0.74639000  0.73664200  1
  Mn  Mn15  1  0.62316600  0.73589200  0.76541500  1
  B  B16  1  0.36905000  0.13698000  0.00425500  1
  B  B17  1  0.13095000  0.63698000  0.00425500  1
  B  B18  1  0.11580000  0.29927700  0.17042800  1
  B  B19  1  0.38420000  0.79927700  0.17042800  1
  B  B20  1  0.62855600  0.21003500  0.33108200  1
  B  B21  1  0.87144400  0.71003500  0.33108200  1
  B  B22  1  0.38492100  0.14986800  0.50664500  1
  B  B23  1  0.88492100  0.35013200  0.49335500  1
  B  B24  1  0.11507900  0.64986800  0.50664500  1
  B  B25  1  0.61507900  0.85013200  0.49335500  1
  B  B26  1  0.12855600  0.28996500  0.66891800  1
  B  B27  1  0.37144400  0.78996500  0.66891800  1
  B  B28  1  0.61580000  0.20072300  0.82957200  1
  B  B29  1  0.88420000  0.70072300  0.82957200  1
  B  B30  1  0.86905000  0.36302000  0.99574500  1
  B  B31  1  0.63095000  0.86302000  0.99574500  1
  O  O32  1  0.38767000  0.31635000  0.06876600  1
  O  O33  1  0.11176100  0.38010300  0.04981500  1
  O  O34  1  0.82609200  0.28948500  0.10431400  1
  O  O35  1  0.11233000  0.81635000  0.06876600  1
  O  O36  1  0.38823900  0.88010300  0.04981500  1
  O  O37  1  0.67390800  0.78948500  0.10431400  1
  O  O38  1  0.05275600  0.09643100  0.22409500  1
  O  O39  1  0.56963100  0.10223600  0.24996000  1
  O  O40  1  0.18134700  0.42777000  0.23786500  1
  O  O41  1  0.44724400  0.59643100  0.22409500  1
  O  O42  1  0.69383500  0.41874900  0.29283700  1
  O  O43  1  0.93036900  0.60223600  0.24996000  1
  O  O44  1  0.31865300  0.92777000  0.23786500  1
  O  O45  1  0.80616500  0.91874900  0.29283700  1
  O  O46  1  0.35288300  0.25354900  0.39738600  1
  O  O47  1  0.62663100  0.10987400  0.45112400  1
  O  O48  1  0.92219800  0.19171800  0.42332800  1
  O  O49  1  0.14711700  0.75354900  0.39738600  1
  O  O50  1  0.87336900  0.60987400  0.45112400  1
  O  O51  1  0.57780200  0.69171800  0.42332800  1
  O  O52  1  0.42219800  0.30828200  0.57667200  1
  O  O53  1  0.12663100  0.39012600  0.54887600  1
  O  O54  1  0.85288300  0.24645100  0.60261400  1
  O  O55  1  0.07780200  0.80828200  0.57667200  1
  O  O56  1  0.37336900  0.89012600  0.54887600  1
  O  O57  1  0.64711700  0.74645100  0.60261400  1
  O  O58  1  0.19383500  0.08125100  0.70716300  1
  O  O59  1  0.68134700  0.07223000  0.76213500  1
  O  O60  1  0.06963100  0.39776400  0.75004000  1
  O  O61  1  0.30616500  0.58125100  0.70716300  1
  O  O62  1  0.55275600  0.40356900  0.77590500  1
  O  O63  1  0.81865300  0.57223000  0.76213500  1
  O  O64  1  0.43036900  0.89776400  0.75004000  1
  O  O65  1  0.94724400  0.90356900  0.77590500  1
  O  O66  1  0.32609200  0.21051500  0.89568600  1
  O  O67  1  0.61176100  0.11989700  0.95018500  1
  O  O68  1  0.88767000  0.18365000  0.93123400  1
  O  O69  1  0.17390800  0.71051500  0.89568600  1
  O  O70  1  0.88823900  0.61989700  0.95018500  1
  O  O71  1  0.61233000  0.68365000  0.93123400  1
