# generated using pymatgen
data_Li3VO3F2
_symmetry_space_group_name_H-M   'P 1'
_cell_length_a   3.90375595
_cell_length_b   5.19348680
_cell_length_c   6.04385238
_cell_angle_alpha   67.41381712
_cell_angle_beta   90.52706082
_cell_angle_gamma   67.88955528
_symmetry_Int_Tables_number   1
_chemical_formula_structural   Li3VO3F2
_chemical_formula_sum   'Li3 V1 O3 F2'
_cell_volume   103.10845859
_cell_formula_units_Z   1
loop_
 _symmetry_equiv_pos_site_id
 _symmetry_equiv_pos_as_xyz
  1  'x, y, z'
loop_
 _atom_site_type_symbol
 _atom_site_label
 _atom_site_symmetry_multiplicity
 _atom_site_fract_x
 _atom_site_fract_y
 _atom_site_fract_z
 _atom_site_occupancy
  Li  Li0  1  0.25435247  0.49189067  0.67587423  1
  Li  Li1  1  0.67709852  0.64063557  0.89682606  1
  Li  Li2  1  0.73855354  0.51971159  0.35357395  1
  V  V3  1  0.03671525  0.01533376  0.97837021  1
  O  O4  1  0.11142724  0.76084514  0.84890165  1
  O  O5  1  0.49456387  0.98350542  0.02112470  1
  O  O6  1  0.81745845  0.36694478  0.72079688  1
  F  F7  1  0.16180855  0.66115629  0.33083300  1
  F  F8  1  0.85428412  0.26745078  0.17995332  1
