# generated using pymatgen
data_Li7Fe7SiO16
_symmetry_space_group_name_H-M   'P 1'
_cell_length_a   5.23585994
_cell_length_b   5.23585994
_cell_length_c   11.41016400
_cell_angle_alpha   90.00000000
_cell_angle_beta   90.00000000
_cell_angle_gamma   113.42889524
_symmetry_Int_Tables_number   1
_chemical_formula_structural   Li7Fe7SiO16
_chemical_formula_sum   'Li7 Fe7 Si1 O16'
_cell_volume   287.01174250
_cell_formula_units_Z   1
loop_
 _symmetry_equiv_pos_site_id
 _symmetry_equiv_pos_as_xyz
  1  'x, y, z'
loop_
 _atom_site_type_symbol
 _atom_site_label
 _atom_site_symmetry_multiplicity
 _atom_site_fract_x
 _atom_site_fract_y
 _atom_site_fract_z
 _atom_site_occupancy
  Li  Li0  1  0.50000000  0.00000000  0.12191500  1
  Li  Li1  1  0.00000000  0.00000000  0.24851400  1
  Li  Li2  1  0.00000000  0.50000000  0.37333100  1
  Li  Li3  1  0.50000000  0.50000000  0.50000000  1
  Li  Li4  1  0.00000000  0.00000000  0.75148600  1
  Li  Li5  1  0.50000000  0.00000000  0.62666900  1
  Li  Li6  1  0.00000000  0.50000000  0.87808500  1
  Fe  Fe7  1  0.00000000  0.50000000  0.12099200  1
  Fe  Fe8  1  0.50000000  0.50000000  0.23779200  1
  Fe  Fe9  1  0.50000000  0.00000000  0.37340900  1
  Fe  Fe10  1  0.00000000  0.00000000  0.50000000  1
  Fe  Fe11  1  0.00000000  0.50000000  0.62659100  1
  Fe  Fe12  1  0.50000000  0.50000000  0.76220800  1
  Fe  Fe13  1  0.50000000  0.00000000  0.87900800  1
  Si  Si14  1  0.00000000  0.00000000  0.00000000  1
  O  O15  1  0.78819500  0.75580900  0.11705100  1
  O  O16  1  0.79777400  0.20222600  0.00000000  1
  O  O17  1  0.20222600  0.79777400  0.00000000  1
  O  O18  1  0.27137200  0.72714100  0.24531300  1
  O  O19  1  0.21180500  0.24419100  0.11705100  1
  O  O20  1  0.72862800  0.27285900  0.24531300  1
  O  O21  1  0.73165300  0.76808600  0.37187900  1
  O  O22  1  0.76808600  0.73165300  0.62812100  1
  O  O23  1  0.26834700  0.23191400  0.37187900  1
  O  O24  1  0.76764200  0.23235800  0.50000000  1
  O  O25  1  0.23235800  0.76764200  0.50000000  1
  O  O26  1  0.27285900  0.72862800  0.75468700  1
  O  O27  1  0.75580900  0.78819500  0.88294900  1
  O  O28  1  0.23191400  0.26834700  0.62812100  1
  O  O29  1  0.72714100  0.27137200  0.75468700  1
  O  O30  1  0.24419100  0.21180500  0.88294900  1
