# generated using pymatgen
data_Li8V3P8O29
_symmetry_space_group_name_H-M   'P 1'
_cell_length_a   9.90099574
_cell_length_b   9.90099574
_cell_length_c   13.83114710
_cell_angle_alpha   89.83202657
_cell_angle_beta   89.83202657
_cell_angle_gamma   59.80684924
_symmetry_Int_Tables_number   1
_chemical_formula_structural   Li8V3P8O29
_chemical_formula_sum   'Li16 V6 P16 O58'
_cell_volume   1171.91341794
_cell_formula_units_Z   2
loop_
 _symmetry_equiv_pos_site_id
 _symmetry_equiv_pos_as_xyz
  1  'x, y, z'
loop_
 _atom_site_type_symbol
 _atom_site_label
 _atom_site_symmetry_multiplicity
 _atom_site_fract_x
 _atom_site_fract_y
 _atom_site_fract_z
 _atom_site_occupancy
  Li  Li0  1  0.33297400  0.76648000  0.18508700  1
  Li  Li1  1  0.76419600  0.90091200  0.18338300  1
  Li  Li2  1  0.66230600  0.66990200  0.36769000  1
  Li  Li3  1  0.65920800  0.67448500  0.86827000  1
  Li  Li4  1  0.90560000  0.76666400  0.68732300  1
  Li  Li5  1  0.76990300  0.32346600  0.68835800  1
  Li  Li6  1  0.90272500  0.32672300  0.18412800  1
  Li  Li7  1  0.23352000  0.66702600  0.81491300  1
  Li  Li8  1  0.09908800  0.23580400  0.81661700  1
  Li  Li9  1  0.32551500  0.34079200  0.13173000  1
  Li  Li10  1  0.33009800  0.33769400  0.63231000  1
  Li  Li11  1  0.23333600  0.09440100  0.31267700  1
  Li  Li12  1  0.67653400  0.23009700  0.31164200  1
  Li  Li13  1  0.67327700  0.09727500  0.81587200  1
  Li  Li14  1  0.06478700  0.97931200  0.74584100  1
  Li  Li15  1  0.02068800  0.93521300  0.25415900  1
  V  V16  1  0.00318900  0.56362000  0.49487700  1
  V  V17  1  0.99886600  0.43665900  0.00107100  1
  V  V18  1  0.43394600  0.56605400  0.00000000  1
  V  V19  1  0.56317900  0.43682100  0.50000000  1
  V  V20  1  0.43638000  0.99681200  0.50512300  1
  V  V21  1  0.56334100  0.00113400  0.99892900  1
  P  P22  1  0.31060600  0.91263300  0.90698200  1
  P  P23  1  0.31382400  0.77751500  0.40625500  1
  P  P24  1  0.77258700  0.90919200  0.40653700  1
  P  P25  1  0.67374400  0.66447400  0.62367600  1
  P  P26  1  0.66485400  0.66668900  0.12635800  1
  P  P27  1  0.91018600  0.77150600  0.90372700  1
  P  P28  1  0.08736700  0.68939400  0.09301800  1
  P  P29  1  0.77194900  0.31915400  0.90566700  1
  P  P30  1  0.22248500  0.68617600  0.59374500  1
  P  P31  1  0.91038500  0.31792100  0.40621800  1
  P  P32  1  0.09080800  0.22741300  0.59346300  1
  P  P33  1  0.33552600  0.32625600  0.37632400  1
  P  P34  1  0.33331100  0.33514600  0.87364200  1
  P  P35  1  0.22849400  0.08981400  0.09627300  1
  P  P36  1  0.68084600  0.22805100  0.09433300  1
  P  P37  1  0.68207900  0.08961500  0.59378200  1
  O  O38  1  0.23588300  0.99840900  0.18752900  1
  O  O39  1  0.33257600  0.92325000  0.41253000  1
  O  O40  1  0.21668100  0.77275400  0.68343400  1
  O  O41  1  0.32885600  0.74927800  0.90423400  1
  O  O42  1  0.47351100  0.89654700  0.91252200  1
  O  O43  1  0.52949600  0.81465400  0.57723100  1
  O  O44  1  0.62229400  0.89897800  0.41731900  1
  O  O45  1  0.76540600  0.99537400  0.68187400  1
  O  O46  1  0.75055500  0.92138100  0.90496600  1
  O  O47  1  0.51292200  0.67413200  0.08873300  1
  O  O48  1  0.47776600  0.63127400  0.41751600  1
  O  O49  1  0.67148500  0.81195700  0.08639900  1
  O  O50  1  0.67778600  0.67432600  0.73112100  1
  O  O51  1  0.66507400  0.66972400  0.23628700  1
  O  O52  1  0.82166600  0.66361400  0.57944500  1
  O  O53  1  0.62901100  0.48449600  0.91643400  1
  O  O54  1  0.67177100  0.51702000  0.58838000  1
  O  O55  1  0.91514200  0.74472500  0.40927800  1
  O  O56  1  0.00859200  0.78040000  0.99276200  1
  O  O57  1  0.98701500  0.79366200  0.17423600  1
  O  O58  1  0.00159100  0.76411700  0.81247100  1
  O  O59  1  0.88704300  0.62963000  0.91643300  1
  O  O60  1  0.81000000  0.51447100  0.08860000  1
  O  O61  1  0.07675000  0.66742400  0.58747000  1
  O  O62  1  0.88908900  0.48358300  0.42056000  1
  O  O63  1  0.74949500  0.33105000  0.40635800  1
  O  O64  1  0.21152900  0.78847100  0.50000000  1
  O  O65  1  0.22724600  0.78331900  0.31656600  1
  O  O66  1  0.76713100  0.23368200  0.18339400  1
  O  O67  1  0.25072200  0.67114400  0.09576600  1
  O  O68  1  0.10345300  0.52648900  0.08747800  1
  O  O69  1  0.92150900  0.32908400  0.90559400  1
  O  O70  1  0.18534600  0.47050400  0.42276900  1
  O  O71  1  0.10102200  0.37770600  0.58268100  1
  O  O72  1  0.00055000  0.22606900  0.68171500  1
  O  O73  1  0.00462600  0.23459400  0.31812600  1
  O  O74  1  0.99942800  0.21490500  0.49981600  1
  O  O75  1  0.07861900  0.24944500  0.09503400  1
  O  O76  1  0.32586800  0.48707800  0.91126700  1
  O  O77  1  0.36872600  0.52223400  0.58248400  1
  O  O78  1  0.18804300  0.32851500  0.91360100  1
  O  O79  1  0.33027600  0.33492600  0.76371300  1
  O  O80  1  0.32567400  0.32221400  0.26887900  1
  O  O81  1  0.33638600  0.17833400  0.42055500  1
  O  O82  1  0.51550400  0.37098900  0.08356600  1
  O  O83  1  0.48298000  0.32822900  0.41162000  1
  O  O84  1  0.25527500  0.08485800  0.59072200  1
  O  O85  1  0.21960000  0.99140800  0.00723800  1
  O  O86  1  0.20633800  0.01298500  0.82576400  1
  O  O87  1  0.37037000  0.11295700  0.08356700  1
  O  O88  1  0.48552900  0.19000000  0.91140000  1
  O  O89  1  0.51641700  0.11091100  0.57944000  1
  O  O90  1  0.66895000  0.25050500  0.59364200  1
  O  O91  1  0.76631800  0.23286900  0.81660600  1
  O  O92  1  0.78291200  0.21708800  0.00000000  1
  O  O93  1  0.67091600  0.07849100  0.09440600  1
  O  O94  1  0.77393100  0.99945000  0.31828500  1
  O  O95  1  0.78509500  0.00057200  0.50018400  1
