# generated using pymatgen
data_Li5MnCr3O8
_symmetry_space_group_name_H-M   'P 1'
_cell_length_a   6.01291240
_cell_length_b   6.01291240
_cell_length_c   9.94109600
_cell_angle_alpha   90.00000000
_cell_angle_beta   90.00000000
_cell_angle_gamma   120.00000436
_symmetry_Int_Tables_number   1
_chemical_formula_structural   Li5MnCr3O8
_chemical_formula_sum   'Li10 Mn2 Cr6 O16'
_cell_volume   311.26811340
_cell_formula_units_Z   2
loop_
 _symmetry_equiv_pos_site_id
 _symmetry_equiv_pos_as_xyz
  1  'x, y, z'
loop_
 _atom_site_type_symbol
 _atom_site_label
 _atom_site_symmetry_multiplicity
 _atom_site_fract_x
 _atom_site_fract_y
 _atom_site_fract_z
 _atom_site_occupancy
  Li  Li0  1  0.38849600  0.19424800  0.43706000  1
  Li  Li1  1  0.66666700  0.33333300  0.22441900  1
  Li  Li2  1  0.80575200  0.19424800  0.43706000  1
  Li  Li3  1  0.80575200  0.61150400  0.43706000  1
  Li  Li4  1  0.00000000  0.00000000  0.51573000  1
  Li  Li5  1  0.19424800  0.80575200  0.93706000  1
  Li  Li6  1  0.33333300  0.66666700  0.72441900  1
  Li  Li7  1  0.19424800  0.38849600  0.93706000  1
  Li  Li8  1  0.00000000  0.00000000  0.01573000  1
  Li  Li9  1  0.61150400  0.80575200  0.93706000  1
  Mn  Mn10  1  0.33333300  0.66666700  0.47548600  1
  Mn  Mn11  1  0.66666700  0.33333300  0.97548600  1
  Cr  Cr12  1  0.17054300  0.82945700  0.21458900  1
  Cr  Cr13  1  0.34108700  0.17054300  0.71458900  1
  Cr  Cr14  1  0.17054300  0.34108700  0.21458900  1
  Cr  Cr15  1  0.82945700  0.65891300  0.71458900  1
  Cr  Cr16  1  0.65891300  0.82945700  0.21458900  1
  Cr  Cr17  1  0.82945700  0.17054300  0.71458900  1
  O  O18  1  0.32137000  0.16068500  0.10066300  1
  O  O19  1  0.16068500  0.83931500  0.60066300  1
  O  O20  1  0.01355800  0.50677900  0.32946000  1
  O  O21  1  0.50677900  0.49322100  0.82946000  1
  O  O22  1  0.00000000  0.00000000  0.32570900  1
  O  O23  1  0.33333300  0.66666700  0.09993700  1
  O  O24  1  0.83931500  0.67863000  0.10066300  1
  O  O25  1  0.49322100  0.98644200  0.32946000  1
  O  O26  1  0.00000000  0.00000000  0.82570900  1
  O  O27  1  0.16068500  0.32137000  0.60066300  1
  O  O28  1  0.66666700  0.33333300  0.59993700  1
  O  O29  1  0.50677900  0.01355800  0.82946000  1
  O  O30  1  0.49322100  0.50677900  0.32946000  1
  O  O31  1  0.98644200  0.49322100  0.82946000  1
  O  O32  1  0.83931500  0.16068500  0.10066300  1
  O  O33  1  0.67863000  0.83931500  0.60066300  1
