# generated using pymatgen
data_LiMnOF2
_symmetry_space_group_name_H-M   'P 1'
_cell_length_a   5.25280200
_cell_length_b   8.90124200
_cell_length_c   12.54967217
_cell_angle_alpha   49.37946287
_cell_angle_beta   90.00000000
_cell_angle_gamma   90.00000000
_symmetry_Int_Tables_number   1
_chemical_formula_structural   LiMnOF2
_chemical_formula_sum   'Li8 Mn8 O8 F16'
_cell_volume   445.38699934
_cell_formula_units_Z   8
loop_
 _symmetry_equiv_pos_site_id
 _symmetry_equiv_pos_as_xyz
  1  'x, y, z'
loop_
 _atom_site_type_symbol
 _atom_site_label
 _atom_site_symmetry_multiplicity
 _atom_site_fract_x
 _atom_site_fract_y
 _atom_site_fract_z
 _atom_site_occupancy
  Li  Li0  1  0.08044800  0.82426500  0.00259300  1
  Li  Li1  1  0.09255600  0.94880000  0.21263500  1
  Li  Li2  1  0.90744400  0.94880000  0.71263500  1
  Li  Li3  1  0.91955200  0.82426500  0.50259300  1
  Li  Li4  1  0.58393800  0.64124000  0.00503200  1
  Li  Li5  1  0.59205600  0.14225900  0.19972500  1
  Li  Li6  1  0.40794400  0.14225900  0.69972500  1
  Li  Li7  1  0.41606200  0.64124000  0.50503200  1
  Mn  Mn8  1  0.08132500  0.32605200  0.19014500  1
  Mn  Mn9  1  0.03912700  0.43118700  0.42233100  1
  Mn  Mn10  1  0.96087300  0.43118700  0.92233100  1
  Mn  Mn11  1  0.91867500  0.32605200  0.69014500  1
  Mn  Mn12  1  0.60032000  0.78607300  0.19735600  1
  Mn  Mn13  1  0.60226500  0.23573700  0.43205100  1
  Mn  Mn14  1  0.39773500  0.23573700  0.93205100  1
  Mn  Mn15  1  0.39968000  0.78607300  0.69735600  1
  O  O16  1  0.18638800  0.42365400  0.56564700  1
  O  O17  1  0.23154400  0.25589000  0.06000300  1
  O  O18  1  0.09667300  0.34908200  0.82439100  1
  O  O19  1  0.10854700  0.70639600  0.79712100  1
  O  O20  1  0.89145300  0.70639600  0.29712100  1
  O  O21  1  0.90332700  0.34908200  0.32439100  1
  O  O22  1  0.76845600  0.25589000  0.56000300  1
  O  O23  1  0.81361200  0.42365400  0.06564700  1
  F  F24  1  0.24966200  0.58450400  0.07609000  1
  F  F25  1  0.07068400  0.04878200  0.80114800  1
  F  F26  1  0.92931600  0.04878200  0.30114800  1
  F  F27  1  0.75033800  0.58450400  0.57609000  1
  F  F28  1  0.73779600  0.77352500  0.06001300  1
  F  F29  1  0.71096000  0.92034500  0.57257100  1
  F  F30  1  0.69951500  0.11126200  0.06018800  1
  F  F31  1  0.61373600  0.51105400  0.82733500  1
  F  F32  1  0.56784000  0.85596300  0.80383900  1
  F  F33  1  0.58967000  0.21271400  0.80100500  1
  F  F34  1  0.41033000  0.21271400  0.30100500  1
  F  F35  1  0.43216000  0.85596300  0.30383900  1
  F  F36  1  0.38626400  0.51105400  0.32733500  1
  F  F37  1  0.30048500  0.11126200  0.56018800  1
  F  F38  1  0.28904000  0.92034500  0.07257100  1
  F  F39  1  0.26220400  0.77352500  0.56001300  1
