# generated using pymatgen
data_Li4Ti3V3(TeO8)2
_symmetry_space_group_name_H-M   'P 1'
_cell_length_a   6.09447311
_cell_length_b   10.36927356
_cell_length_c   10.30128356
_cell_angle_alpha   90.06307138
_cell_angle_beta   90.01517551
_cell_angle_gamma   88.20954838
_symmetry_Int_Tables_number   1
_chemical_formula_structural   Li4Ti3V3(TeO8)2
_chemical_formula_sum   'Li8 Ti6 V6 Te4 O32'
_cell_volume   650.67404272
_cell_formula_units_Z   2
loop_
 _symmetry_equiv_pos_site_id
 _symmetry_equiv_pos_as_xyz
  1  'x, y, z'
loop_
 _atom_site_type_symbol
 _atom_site_label
 _atom_site_symmetry_multiplicity
 _atom_site_fract_x
 _atom_site_fract_y
 _atom_site_fract_z
 _atom_site_occupancy
  Li  Li0  1  0.99401900  0.33145600  0.90606200  1
  Li  Li1  1  0.49405500  0.83147600  0.90609800  1
  Li  Li2  1  0.00620400  0.00200200  0.98525700  1
  Li  Li3  1  0.50610200  0.50201700  0.98532200  1
  Li  Li4  1  0.00244800  0.00091600  0.49552300  1
  Li  Li5  1  0.50250200  0.50092200  0.49565800  1
  Li  Li6  1  0.50516600  0.16839200  0.39580900  1
  Li  Li7  1  0.00529800  0.66825300  0.39591900  1
  Ti  Ti8  1  0.26457000  0.08830000  0.73302600  1
  Ti  Ti9  1  0.76460500  0.58826200  0.73302400  1
  Ti  Ti10  1  0.76403700  0.42032500  0.22018200  1
  Ti  Ti11  1  0.26432300  0.92033700  0.22019500  1
  Ti  Ti12  1  0.01293000  0.17202300  0.21960100  1
  Ti  Ti13  1  0.51335900  0.67196300  0.21998300  1
  V  V14  1  0.74640100  0.91544500  0.20800500  1
  V  V15  1  0.00299300  0.82426600  0.71618700  1
  V  V16  1  0.23771600  0.58932000  0.71626900  1
  V  V17  1  0.24610600  0.41543500  0.20783100  1
  V  V18  1  0.50309100  0.32423000  0.71620700  1
  V  V19  1  0.73755400  0.08945800  0.71631100  1
  Te  Te20  1  0.00536400  0.33505600  0.51239200  1
  Te  Te21  1  0.50531900  0.83505900  0.51247000  1
  Te  Te22  1  0.51706200  0.17240600  0.99620700  1
  Te  Te23  1  0.01698600  0.67226400  0.99623800  1
  O  O24  1  0.77304600  0.25755000  0.32036000  1
  O  O25  1  0.27304700  0.75758500  0.32026800  1
  O  O26  1  0.98802600  0.32938800  0.10876500  1
  O  O27  1  0.48854100  0.82949100  0.10898100  1
  O  O28  1  0.00215600  0.00066400  0.31117000  1
  O  O29  1  0.50255100  0.50075500  0.31132200  1
  O  O30  1  0.01001900  0.00336400  0.80271000  1
  O  O31  1  0.51000800  0.50332400  0.80271900  1
  O  O32  1  0.21376900  0.07115800  0.10855200  1
  O  O33  1  0.71386300  0.57122700  0.10853500  1
  O  O34  1  0.25824400  0.41952400  0.60008500  1
  O  O35  1  0.75823300  0.91951500  0.60013500  1
  O  O36  1  0.47525400  0.15847700  0.60770000  1
  O  O37  1  0.97524800  0.65848100  0.60776800  1
  O  O38  1  0.71836200  0.23953800  0.85693000  1
  O  O39  1  0.21845700  0.73947400  0.85696600  1
  O  O40  1  0.75174700  0.41578600  0.60200000  1
  O  O41  1  0.25164800  0.91581400  0.60207100  1
  O  O42  1  0.99929600  0.16800400  0.60213800  1
  O  O43  1  0.49927200  0.66800600  0.60217600  1
  O  O44  1  0.99400200  0.49241100  0.31276900  1
  O  O45  1  0.49395200  0.99256700  0.31269400  1
  O  O46  1  0.23599600  0.25071400  0.31225000  1
  O  O47  1  0.73611000  0.75065500  0.31270700  1
  O  O48  1  0.25852300  0.23910700  0.83301300  1
  O  O49  1  0.75863500  0.73903600  0.83314700  1
  O  O50  1  0.48773200  0.00989900  0.83329800  1
  O  O51  1  0.98768700  0.50978000  0.83317900  1
  O  O52  1  0.50719200  0.34234700  0.09546700  1
  O  O53  1  0.00711200  0.84224900  0.09525300  1
  O  O54  1  0.76686700  0.08243800  0.09524300  1
  O  O55  1  0.26689500  0.58238500  0.09553700  1
