# generated using pymatgen
data_Li2V(Si2O5)2
_symmetry_space_group_name_H-M   'P 1'
_cell_length_a   6.98277900
_cell_length_b   7.57544048
_cell_length_c   9.73171332
_cell_angle_alpha   99.39366240
_cell_angle_beta   102.49922645
_cell_angle_gamma   116.84958973
_symmetry_Int_Tables_number   1
_chemical_formula_structural   Li2V(Si2O5)2
_chemical_formula_sum   'Li4 V2 Si8 O20'
_cell_volume   427.80536145
_cell_formula_units_Z   2
loop_
 _symmetry_equiv_pos_site_id
 _symmetry_equiv_pos_as_xyz
  1  'x, y, z'
loop_
 _atom_site_type_symbol
 _atom_site_label
 _atom_site_symmetry_multiplicity
 _atom_site_fract_x
 _atom_site_fract_y
 _atom_site_fract_z
 _atom_site_occupancy
  Li  Li0  1  0.38784900  0.25454400  0.05619900  1
  Li  Li1  1  0.21801500  0.68168300  0.57198500  1
  Li  Li2  1  0.78198500  0.31831700  0.42801500  1
  Li  Li3  1  0.61215100  0.74545600  0.94380100  1
  V  V4  1  0.24091100  0.30023100  0.42573400  1
  V  V5  1  0.75908900  0.69976900  0.57426600  1
  Si  Si6  1  0.24747100  0.94956800  0.18721100  1
  Si  Si7  1  0.38895900  0.63799400  0.25711600  1
  Si  Si8  1  0.81095600  0.61490400  0.23935700  1
  Si  Si9  1  0.89534100  0.27624600  0.14196600  1
  Si  Si10  1  0.10465900  0.72375400  0.85803400  1
  Si  Si11  1  0.18904400  0.38509600  0.76064300  1
  Si  Si12  1  0.61104100  0.36200600  0.74288400  1
  Si  Si13  1  0.75252900  0.05043200  0.81278900  1
  O  O14  1  0.22262400  0.92218500  0.00910100  1
  O  O15  1  0.14378000  0.45025400  0.13765500  1
  O  O16  1  0.40957700  0.86293300  0.26052800  1
  O  O17  1  0.57439900  0.62258800  0.18181500  1
  O  O18  1  0.99310000  0.80703700  0.19641600  1
  O  O19  1  0.73616700  0.38813100  0.12388900  1
  O  O20  1  0.42799300  0.61565500  0.42160000  1
  O  O21  1  0.35358500  0.19232600  0.25759600  1
  O  O22  1  0.08843100  0.78850300  0.71032200  1
  O  O23  1  0.10657800  0.38054700  0.59235100  1
  O  O24  1  0.89342200  0.61945300  0.40764900  1
  O  O25  1  0.91156900  0.21149700  0.28967800  1
  O  O26  1  0.64641500  0.80767400  0.74240400  1
  O  O27  1  0.57200700  0.38434500  0.57840000  1
  O  O28  1  0.26383300  0.61186900  0.87611100  1
  O  O29  1  0.00690000  0.19296300  0.80358400  1
  O  O30  1  0.42560100  0.37741200  0.81818500  1
  O  O31  1  0.59042300  0.13706700  0.73947200  1
  O  O32  1  0.85622000  0.54974600  0.86234500  1
  O  O33  1  0.77737600  0.07781500  0.99089900  1
