# generated using pymatgen
data_Li5Mn3(SbO5)2
_symmetry_space_group_name_H-M   'P 1'
_cell_length_a   5.42257068
_cell_length_b   8.35678704
_cell_length_c   10.77291325
_cell_angle_alpha   109.13510710
_cell_angle_beta   79.69285913
_cell_angle_gamma   108.57149232
_symmetry_Int_Tables_number   1
_chemical_formula_structural   Li5Mn3(SbO5)2
_chemical_formula_sum   'Li10 Mn6 Sb4 O20'
_cell_volume   435.67204359
_cell_formula_units_Z   2
loop_
 _symmetry_equiv_pos_site_id
 _symmetry_equiv_pos_as_xyz
  1  'x, y, z'
loop_
 _atom_site_type_symbol
 _atom_site_label
 _atom_site_symmetry_multiplicity
 _atom_site_fract_x
 _atom_site_fract_y
 _atom_site_fract_z
 _atom_site_occupancy
  Li  Li0  1  0.50001500  0.50002400  0.49999500  1
  Li  Li1  1  0.49999000  0.49998800  0.00000500  1
  Li  Li2  1  0.24028300  0.39882700  0.25746600  1
  Li  Li3  1  0.24046800  0.39850600  0.75664900  1
  Li  Li4  1  0.75978300  0.60121300  0.74254000  1
  Li  Li5  1  0.75947300  0.60153000  0.24334700  1
  Li  Li6  1  0.37778600  0.77452800  0.74149800  1
  Li  Li7  1  0.37740800  0.77530500  0.24245100  1
  Li  Li8  1  0.62235200  0.22550800  0.25848900  1
  Li  Li9  1  0.62249500  0.22465300  0.75756000  1
  Mn  Mn10  1  0.99995900  0.00013600  0.25029800  1
  Mn  Mn11  1  0.69042000  0.89279100  0.49997200  1
  Mn  Mn12  1  0.30951500  0.10720400  0.00013300  1
  Mn  Mn13  1  0.00011500  0.99989600  0.74967000  1
  Mn  Mn14  1  0.69040000  0.89284200  0.99994700  1
  Mn  Mn15  1  0.30962600  0.10712500  0.50001600  1
  Sb  Sb16  1  0.09914900  0.69678300  0.49143100  1
  Sb  Sb17  1  0.09896500  0.69661700  0.99153300  1
  Sb  Sb18  1  0.90087700  0.30325200  0.50852900  1
  Sb  Sb19  1  0.90100300  0.30334900  0.00846900  1
  O  O20  1  0.04965900  0.84074500  0.87811700  1
  O  O21  1  0.04975300  0.84158500  0.37755800  1
  O  O22  1  0.95031800  0.15916300  0.12191600  1
  O  O23  1  0.95025700  0.15856900  0.62236100  1
  O  O24  1  0.32630100  0.92663300  0.61555300  1
  O  O25  1  0.32547900  0.92545500  0.11492100  1
  O  O26  1  0.67379600  0.07350900  0.38450000  1
  O  O27  1  0.67448800  0.07448400  0.88506800  1
  O  O28  1  0.14002800  0.54738600  0.60813900  1
  O  O29  1  0.13997300  0.54738100  0.10785900  1
  O  O30  1  0.85982000  0.45228600  0.39185800  1
  O  O31  1  0.86007500  0.45274100  0.89214300  1
  O  O32  1  0.22587400  0.24827900  0.38157600  1
  O  O33  1  0.22486900  0.24864300  0.88226000  1
  O  O34  1  0.77391100  0.75177000  0.61851600  1
  O  O35  1  0.77520900  0.75133100  0.11770100  1
  O  O36  1  0.42889500  0.65358100  0.37492600  1
  O  O37  1  0.42768200  0.65372400  0.87550600  1
  O  O38  1  0.57131300  0.34639000  0.62499700  1
  O  O39  1  0.57221900  0.34626800  0.12452700  1
