# generated using pymatgen
data_Li7VO5F
_symmetry_space_group_name_H-M   'P 1'
_cell_length_a   5.59113500
_cell_length_b   5.59565193
_cell_length_c   10.79765141
_cell_angle_alpha   89.00030857
_cell_angle_beta   88.71638434
_cell_angle_gamma   60.39483906
_symmetry_Int_Tables_number   1
_chemical_formula_structural   Li7VO5F
_chemical_formula_sum   'Li14 V2 O10 F2'
_cell_volume   293.63248802
_cell_formula_units_Z   2
loop_
 _symmetry_equiv_pos_site_id
 _symmetry_equiv_pos_as_xyz
  1  'x, y, z'
loop_
 _atom_site_type_symbol
 _atom_site_label
 _atom_site_symmetry_multiplicity
 _atom_site_fract_x
 _atom_site_fract_y
 _atom_site_fract_z
 _atom_site_occupancy
  Li  Li0  1  0.35663500  0.98231000  0.75797500  1
  Li  Li1  1  0.39293300  0.62971900  0.62956000  1
  Li  Li2  1  0.65113900  0.66958800  0.42844600  1
  Li  Li3  1  0.67079100  0.64811700  0.90860400  1
  Li  Li4  1  0.95360500  0.73214000  0.75728100  1
  Li  Li5  1  0.70652300  0.29162600  0.76956700  1
  Li  Li6  1  0.99259200  0.38735700  0.62743900  1
  Li  Li7  1  0.26822400  0.68596100  0.26671100  1
  Li  Li8  1  0.01032300  0.34228100  0.25864000  1
  Li  Li9  1  0.34716800  0.31440500  0.40993000  1
  Li  Li10  1  0.31526100  0.34428000  0.92899600  1
  Li  Li11  1  0.61277400  0.38137900  0.12805700  1
  Li  Li12  1  0.36967000  0.02627900  0.12822100  1
  Li  Li13  1  0.70493600  0.00093700  0.26118800  1
  V  V14  1  0.00869100  0.98106500  0.99521500  1
  V  V15  1  0.98354400  0.00673000  0.49537200  1
  O  O16  1  0.02692400  0.00111600  0.66858800  1
  O  O17  1  0.30422400  0.68442500  0.45223400  1
  O  O18  1  0.69908400  0.98182100  0.44051200  1
  O  O19  1  0.67734600  0.63658200  0.72158900  1
  O  O20  1  0.98937400  0.69546600  0.93783900  1
  O  O21  1  0.99530600  0.31287100  0.44788700  1
  O  O22  1  0.35854400  0.31737100  0.22258900  1
  O  O23  1  0.31284700  0.00006600  0.94880200  1
  O  O24  1  0.68424200  0.29951200  0.95206700  1
  O  O25  1  0.00257600  0.02509200  0.16842100  1
  F  F26  1  0.63614000  0.67825700  0.21884800  1
  F  F27  1  0.31622900  0.35701400  0.71917900  1
