# generated using pymatgen
data_LiBi3(P3O10)2
_symmetry_space_group_name_H-M   'P 1'
_cell_length_a   8.99517360
_cell_length_b   8.99517360
_cell_length_c   13.38354700
_cell_angle_alpha   90.00000000
_cell_angle_beta   90.00000000
_cell_angle_gamma   109.85241936
_symmetry_Int_Tables_number   1
_chemical_formula_structural   LiBi3(P3O10)2
_chemical_formula_sum   'Li2 Bi6 P12 O40'
_cell_volume   1018.54838683
_cell_formula_units_Z   2
loop_
 _symmetry_equiv_pos_site_id
 _symmetry_equiv_pos_as_xyz
  1  'x, y, z'
loop_
 _atom_site_type_symbol
 _atom_site_label
 _atom_site_symmetry_multiplicity
 _atom_site_fract_x
 _atom_site_fract_y
 _atom_site_fract_z
 _atom_site_occupancy
  Li  Li0  1  0.08479400  0.08479400  0.00000000  1
  Li  Li1  1  0.58479400  0.58479400  0.50000000  1
  Bi  Bi2  1  0.38331800  0.38331800  0.00000000  1
  Bi  Bi3  1  0.75613900  0.32438600  0.77278700  1
  Bi  Bi4  1  0.32438600  0.75613900  0.22721300  1
  Bi  Bi5  1  0.82438600  0.25613900  0.27278700  1
  Bi  Bi6  1  0.25613900  0.82438600  0.72721300  1
  Bi  Bi7  1  0.88331800  0.88331800  0.50000000  1
  P  P8  1  0.14013500  0.39153700  0.68797800  1
  P  P9  1  0.39153700  0.14013500  0.31202200  1
  P  P10  1  0.22153300  0.32465600  0.20513500  1
  P  P11  1  0.32465600  0.22153300  0.79486500  1
  P  P12  1  0.39090900  0.78132900  0.96426100  1
  P  P13  1  0.89090900  0.28132900  0.53573900  1
  P  P14  1  0.78132900  0.39090900  0.03573800  1
  P  P15  1  0.28132900  0.89090900  0.46426200  1
  P  P16  1  0.89153700  0.64013500  0.18797800  1
  P  P17  1  0.64013500  0.89153700  0.81202200  1
  P  P18  1  0.82465600  0.72153300  0.70513500  1
  P  P19  1  0.72153300  0.82465600  0.29486500  1
  O  O20  1  0.00655700  0.33860600  0.76350800  1
  O  O21  1  0.33860600  0.00655700  0.23649200  1
  O  O22  1  0.37843500  0.09180000  0.75147300  1
  O  O23  1  0.09180000  0.37843500  0.24852700  1
  O  O24  1  0.07495200  0.35458500  0.57620300  1
  O  O25  1  0.35458500  0.07495200  0.42379700  1
  O  O26  1  0.20875600  0.17414100  0.88428300  1
  O  O27  1  0.17414100  0.20875600  0.11571700  1
  O  O28  1  0.23902400  0.27284100  0.69972700  1
  O  O29  1  0.27284100  0.23902400  0.30027300  1
  O  O30  1  0.75251000  0.05948500  0.80911300  1
  O  O31  1  0.05948500  0.75251000  0.19088700  1
  O  O32  1  0.25251000  0.55948500  0.69088700  1
  O  O33  1  0.55948500  0.25251000  0.30911300  1
  O  O34  1  0.36439700  0.46875400  0.17218000  1
  O  O35  1  0.96875400  0.86439700  0.67218000  1
  O  O36  1  0.46875400  0.36439700  0.82782000  1
  O  O37  1  0.86439700  0.96875400  0.32782000  1
  O  O38  1  0.10148700  0.84553500  0.45182500  1
  O  O39  1  0.34553500  0.60148700  0.95182500  1
  O  O40  1  0.84553500  0.10148700  0.54817500  1
  O  O41  1  0.60148700  0.34553500  0.04817500  1
  O  O42  1  0.34285700  0.78457900  0.40018200  1
  O  O43  1  0.28457900  0.84285700  0.90018200  1
  O  O44  1  0.78457900  0.34285700  0.59981800  1
  O  O45  1  0.84285700  0.28457900  0.09981800  1
  O  O46  1  0.84101800  0.40360800  0.92908100  1
  O  O47  1  0.34101800  0.90360800  0.57091900  1
  O  O48  1  0.90360800  0.34101800  0.42908100  1
  O  O49  1  0.40360800  0.84101800  0.07091900  1
  O  O50  1  0.83860600  0.50655700  0.26350800  1
  O  O51  1  0.50655700  0.83860600  0.73649200  1
  O  O52  1  0.59180000  0.87843500  0.25147300  1
  O  O53  1  0.87843500  0.59180000  0.74852700  1
  O  O54  1  0.85458500  0.57495200  0.07620300  1
  O  O55  1  0.57495200  0.85458500  0.92379700  1
  O  O56  1  0.67414100  0.70875600  0.38428300  1
  O  O57  1  0.70875600  0.67414100  0.61571700  1
  O  O58  1  0.77284100  0.73902400  0.19972700  1
  O  O59  1  0.73902400  0.77284100  0.80027300  1
