# generated using pymatgen
data_Li2Cr3FeO8
_symmetry_space_group_name_H-M   'P 1'
_cell_length_a   5.87647570
_cell_length_b   5.87955975
_cell_length_c   9.53501021
_cell_angle_alpha   89.16649365
_cell_angle_beta   90.41696449
_cell_angle_gamma   120.01736026
_symmetry_Int_Tables_number   1
_chemical_formula_structural   Li2Cr3FeO8
_chemical_formula_sum   'Li4 Cr6 Fe2 O16'
_cell_volume   285.22762866
_cell_formula_units_Z   2
loop_
 _symmetry_equiv_pos_site_id
 _symmetry_equiv_pos_as_xyz
  1  'x, y, z'
loop_
 _atom_site_type_symbol
 _atom_site_label
 _atom_site_symmetry_multiplicity
 _atom_site_fract_x
 _atom_site_fract_y
 _atom_site_fract_z
 _atom_site_occupancy
  Li  Li0  1  0.33182600  0.66826500  0.89501500  1
  Li  Li1  1  0.00044000  0.00034000  0.99715400  1
  Li  Li2  1  0.99956000  0.99990000  0.49715400  1
  Li  Li3  1  0.66817400  0.33643800  0.39501600  1
  Cr  Cr4  1  0.16899000  0.83193000  0.21245400  1
  Cr  Cr5  1  0.17016400  0.34006400  0.21506800  1
  Cr  Cr6  1  0.66241900  0.83191700  0.21246000  1
  Cr  Cr7  1  0.33758100  0.16949800  0.71246000  1
  Cr  Cr8  1  0.83101000  0.66294000  0.71245400  1
  Cr  Cr9  1  0.82983600  0.16989800  0.71506800  1
  Fe  Fe10  1  0.33652200  0.66478400  0.48836900  1
  Fe  Fe11  1  0.66347800  0.32826200  0.98836900  1
  O  O12  1  0.16383700  0.83841600  0.60652000  1
  O  O13  1  0.04029400  0.52740300  0.33571400  1
  O  O14  1  0.33479300  0.67161600  0.10345200  1
  O  O15  1  0.99874700  0.99564200  0.31260400  1
  O  O16  1  0.00125300  0.99689300  0.81260400  1
  O  O17  1  0.17253900  0.32449200  0.60340300  1
  O  O18  1  0.48271900  0.96302400  0.33207900  1
  O  O19  1  0.48980900  0.52798900  0.33512500  1
  O  O20  1  0.32457100  0.15310600  0.10450200  1
  O  O21  1  0.67542900  0.82853400  0.60450200  1
  O  O22  1  0.51728100  0.48030500  0.83207900  1
  O  O23  1  0.51019100  0.03818000  0.83512500  1
  O  O24  1  0.66520700  0.33682200  0.60345200  1
  O  O25  1  0.83616300  0.67458000  0.10652000  1
  O  O26  1  0.95970600  0.48711000  0.83571400  1
  O  O27  1  0.82746100  0.15195300  0.10340300  1
