# generated using pymatgen
data_Li6Mn3Cr(PO4)6
_symmetry_space_group_name_H-M   'P 1'
_cell_length_a   8.50166200
_cell_length_b   8.59772867
_cell_length_c   8.77316917
_cell_angle_alpha   60.75792647
_cell_angle_beta   61.78238260
_cell_angle_gamma   61.41351506
_symmetry_Int_Tables_number   1
_chemical_formula_structural   Li6Mn3Cr(PO4)6
_chemical_formula_sum   'Li6 Mn3 Cr1 P6 O24'
_cell_volume   466.80828126
_cell_formula_units_Z   1
loop_
 _symmetry_equiv_pos_site_id
 _symmetry_equiv_pos_as_xyz
  1  'x, y, z'
loop_
 _atom_site_type_symbol
 _atom_site_label
 _atom_site_symmetry_multiplicity
 _atom_site_fract_x
 _atom_site_fract_y
 _atom_site_fract_z
 _atom_site_occupancy
  Li  Li0  1  0.00732500  0.98370500  0.97693900  1
  Li  Li1  1  0.66072100  0.83863000  0.24694900  1
  Li  Li2  1  0.51192000  0.49620300  0.52138400  1
  Li  Li3  1  0.34101400  0.16154500  0.75202300  1
  Li  Li4  1  0.15966900  0.73951100  0.34667300  1
  Li  Li5  1  0.74861600  0.34325100  0.14940400  1
  Mn  Mn6  1  0.85621100  0.85878000  0.85644600  1
  Mn  Mn7  1  0.64080900  0.64141100  0.64628900  1
  Mn  Mn8  1  0.35570900  0.34907400  0.35218800  1
  Cr  Cr9  1  0.14652600  0.14551900  0.14437100  1
  P  P10  1  0.55411100  0.24993900  0.94729300  1
  P  P11  1  0.24918700  0.95092900  0.54746700  1
  P  P12  1  0.95638000  0.54181700  0.25007600  1
  P  P13  1  0.03660400  0.46505900  0.75441500  1
  P  P14  1  0.74788000  0.03769800  0.45466000  1
  P  P15  1  0.45937200  0.75250300  0.04581200  1
  O  O16  1  0.49375600  0.72018200  0.87720500  1
  O  O17  1  0.87448300  0.49188000  0.70324300  1
  O  O18  1  0.74054900  0.07648800  0.94044400  1
  O  O19  1  0.70761100  0.87361800  0.46895600  1
  O  O20  1  0.56762700  0.41214200  0.76012400  1
  O  O21  1  0.38877300  0.19527900  0.98158500  1
  O  O22  1  0.09053700  0.93012100  0.73260400  1
  O  O23  1  0.42285200  0.76614900  0.55161800  1
  O  O24  1  0.76201400  0.56207500  0.39963900  1
  O  O25  1  0.00028800  0.62850700  0.80491700  1
  O  O26  1  0.05820900  0.27064400  0.91753300  1
  O  O27  1  0.77838000  0.00860700  0.62403600  1
  O  O28  1  0.19872300  0.98339200  0.38476500  1
  O  O29  1  0.94096600  0.73756400  0.09752200  1
  O  O30  1  0.99328000  0.38411800  0.18964100  1
  O  O31  1  0.22965100  0.44201500  0.59926100  1
  O  O32  1  0.58348400  0.23230800  0.42573400  1
  O  O33  1  0.91210600  0.06627200  0.27020600  1
  O  O34  1  0.62070700  0.79704300  0.03533000  1
  O  O35  1  0.43624500  0.58362300  0.23254500  1
  O  O36  1  0.30166200  0.11392900  0.52134400  1
  O  O37  1  0.26383700  0.91277300  0.07367300  1
  O  O38  1  0.11734400  0.50674700  0.31310400  1
  O  O39  1  0.53386100  0.29994900  0.10258400  1
