# generated using pymatgen
data_Li2UO4
_symmetry_space_group_name_H-M   'P 1'
_cell_length_a   6.11802145
_cell_length_b   6.11802145
_cell_length_c   6.11802145
_cell_angle_alpha   138.27436841
_cell_angle_beta   138.27436841
_cell_angle_gamma   60.48304952
_symmetry_Int_Tables_number   1
_chemical_formula_structural   Li2UO4
_chemical_formula_sum   'Li2 U1 O4'
_cell_volume   100.36507188
_cell_formula_units_Z   1
loop_
 _symmetry_equiv_pos_site_id
 _symmetry_equiv_pos_as_xyz
  1  'x, y, z'
loop_
 _atom_site_type_symbol
 _atom_site_label
 _atom_site_symmetry_multiplicity
 _atom_site_fract_x
 _atom_site_fract_y
 _atom_site_fract_z
 _atom_site_occupancy
  Li  Li0  1  0.64260800  0.64260800  0.00000000  1
  Li  Li1  1  0.35739200  0.35739200  0.00000000  1
  U  U2  1  0.00000000  0.00000000  0.00000000  1
  O  O3  1  0.50000000  0.00000000  0.50000000  1
  O  O4  1  0.18109800  0.18109800  0.00000000  1
  O  O5  1  0.81890200  0.81890200  0.00000000  1
  O  O6  1  0.00000000  0.50000000  0.50000000  1
