# generated using pymatgen
data_LiMnF4
_symmetry_space_group_name_H-M   'P 1'
_cell_length_a   4.62702400
_cell_length_b   5.11081100
_cell_length_c   11.35929600
_cell_angle_alpha   90.00000000
_cell_angle_beta   90.00000000
_cell_angle_gamma   90.00000000
_symmetry_Int_Tables_number   1
_chemical_formula_structural   LiMnF4
_chemical_formula_sum   'Li4 Mn4 F16'
_cell_volume   268.62287289
_cell_formula_units_Z   4
loop_
 _symmetry_equiv_pos_site_id
 _symmetry_equiv_pos_as_xyz
  1  'x, y, z'
loop_
 _atom_site_type_symbol
 _atom_site_label
 _atom_site_symmetry_multiplicity
 _atom_site_fract_x
 _atom_site_fract_y
 _atom_site_fract_z
 _atom_site_occupancy
  Li  Li0  1  0.00000000  0.25000000  0.05823800  1
  Li  Li1  1  0.00000000  0.75000000  0.94176200  1
  Li  Li2  1  0.50000000  0.25000000  0.55823800  1
  Li  Li3  1  0.50000000  0.75000000  0.44176200  1
  Mn  Mn4  1  0.00000000  0.25000000  0.32225000  1
  Mn  Mn5  1  0.00000000  0.75000000  0.67775000  1
  Mn  Mn6  1  0.50000000  0.25000000  0.82225000  1
  Mn  Mn7  1  0.50000000  0.75000000  0.17775000  1
  F  F8  1  0.21931200  0.40598600  0.19732300  1
  F  F9  1  0.21931200  0.90598600  0.80267700  1
  F  F10  1  0.25678900  0.90153100  0.06468700  1
  F  F11  1  0.25678900  0.40153100  0.93531300  1
  F  F12  1  0.24321100  0.90153100  0.56468700  1
  F  F13  1  0.24321100  0.40153100  0.43531300  1
  F  F14  1  0.28068800  0.90598600  0.30267700  1
  F  F15  1  0.28068800  0.40598600  0.69732300  1
  F  F16  1  0.71931200  0.09401400  0.69732300  1
  F  F17  1  0.71931200  0.59401400  0.30267700  1
  F  F18  1  0.75678900  0.09846900  0.43531300  1
  F  F19  1  0.75678900  0.59846900  0.56468700  1
  F  F20  1  0.74321100  0.59846900  0.06468700  1
  F  F21  1  0.74321100  0.09846900  0.93531300  1
  F  F22  1  0.78068800  0.09401400  0.19732300  1
  F  F23  1  0.78068800  0.59401400  0.80267700  1
