# generated using pymatgen
data_Li2CoSnO4
_symmetry_space_group_name_H-M   'P 1'
_cell_length_a   5.96131296
_cell_length_b   8.06893522
_cell_length_c   8.06876536
_cell_angle_alpha   111.35697518
_cell_angle_beta   68.32025619
_cell_angle_gamma   111.68295944
_symmetry_Int_Tables_number   1
_chemical_formula_structural   Li2CoSnO4
_chemical_formula_sum   'Li8 Co4 Sn4 O16'
_cell_volume   323.28474671
_cell_formula_units_Z   4
loop_
 _symmetry_equiv_pos_site_id
 _symmetry_equiv_pos_as_xyz
  1  'x, y, z'
loop_
 _atom_site_type_symbol
 _atom_site_label
 _atom_site_symmetry_multiplicity
 _atom_site_fract_x
 _atom_site_fract_y
 _atom_site_fract_z
 _atom_site_occupancy
  Li  Li0  1  0.37480700  0.37481800  0.12518500  1
  Li  Li1  1  0.62519200  0.12518300  0.37482000  1
  Li  Li2  1  0.87464000  0.87465600  0.62536100  1
  Li  Li3  1  0.12536000  0.62535800  0.87465500  1
  Li  Li4  1  0.25009500  0.24999900  0.74999600  1
  Li  Li5  1  0.50000300  0.99982500  0.99982300  1
  Li  Li6  1  0.74990800  0.74999700  0.24999300  1
  Li  Li7  1  0.00000100  0.50017700  0.50017600  1
  Co  Co8  1  0.87560500  0.37561700  0.12436000  1
  Co  Co9  1  0.12438100  0.12434700  0.37563100  1
  Co  Co10  1  0.37556200  0.87557900  0.62441700  1
  Co  Co11  1  0.62441600  0.62439700  0.87560000  1
  Sn  Sn12  1  0.24984700  0.75000400  0.25000000  1
  Sn  Sn13  1  0.49999800  0.50007800  0.50008600  1
  Sn  Sn14  1  0.75014500  0.24997500  0.75000300  1
  Sn  Sn15  1  0.99999400  0.99992100  0.99993000  1
  O  O16  1  0.87525500  0.61818400  0.36787400  1
  O  O17  1  0.12475100  0.36786500  0.61818700  1
  O  O18  1  0.37528500  0.11770300  0.86751700  1
  O  O19  1  0.62471500  0.86752000  0.11771900  1
  O  O20  1  0.87501500  0.13211800  0.88182600  1
  O  O21  1  0.12496900  0.88182300  0.13212800  1
  O  O22  1  0.37488700  0.63247700  0.38229800  1
  O  O23  1  0.62509900  0.38228100  0.63247300  1
  O  O24  1  0.25034900  0.52328600  0.02324500  1
  O  O25  1  0.50000600  0.27406300  0.27403900  1
  O  O26  1  0.74965200  0.02326200  0.52326400  1
  O  O27  1  0.00000600  0.77396200  0.77394600  1
  O  O28  1  0.00001400  0.22593100  0.22591100  1
  O  O29  1  0.25029900  0.97674600  0.47678100  1
  O  O30  1  0.50001300  0.72605100  0.72603200  1
  O  O31  1  0.74973600  0.47679500  0.97672200  1
