# generated using pymatgen
data_Li3Mn(PO4)2
_symmetry_space_group_name_H-M   'P 1'
_cell_length_a   5.89996500
_cell_length_b   9.59068625
_cell_length_c   11.03797807
_cell_angle_alpha   66.86702294
_cell_angle_beta   90.00142530
_cell_angle_gamma   89.99806939
_symmetry_Int_Tables_number   1
_chemical_formula_structural   Li3Mn(PO4)2
_chemical_formula_sum   'Li12 Mn4 P8 O32'
_cell_volume   574.36173407
_cell_formula_units_Z   4
loop_
 _symmetry_equiv_pos_site_id
 _symmetry_equiv_pos_as_xyz
  1  'x, y, z'
loop_
 _atom_site_type_symbol
 _atom_site_label
 _atom_site_symmetry_multiplicity
 _atom_site_fract_x
 _atom_site_fract_y
 _atom_site_fract_z
 _atom_site_occupancy
  Li  Li0  1  0.75000000  0.98277100  0.93524600  1
  Li  Li1  1  0.74999900  0.48277900  0.93524100  1
  Li  Li2  1  0.25000200  0.01724500  0.06474900  1
  Li  Li3  1  0.25000400  0.51724000  0.06474400  1
  Li  Li4  1  0.74999900  0.85954700  0.77373400  1
  Li  Li5  1  0.74999600  0.35954700  0.77372900  1
  Li  Li6  1  0.25000200  0.14046800  0.22628000  1
  Li  Li7  1  0.25000600  0.64044400  0.22628300  1
  Li  Li8  1  0.99999600  0.00001500  0.50000500  1
  Li  Li9  1  0.99999500  0.49998200  0.50000500  1
  Li  Li10  1  0.50000900  0.00001300  0.50000800  1
  Li  Li11  1  0.50000900  0.49998000  0.50000800  1
  Mn  Mn12  1  0.25000300  0.65794800  0.72184600  1
  Mn  Mn13  1  0.74997600  0.84209900  0.27810000  1
  Mn  Mn14  1  0.25001900  0.15787200  0.72195100  1
  Mn  Mn15  1  0.74999000  0.34199600  0.27817200  1
  P  P16  1  0.24997500  0.85546000  0.89958200  1
  P  P17  1  0.24997900  0.35552100  0.89957600  1
  P  P18  1  0.75001400  0.14451200  0.10041500  1
  P  P19  1  0.75000800  0.64450000  0.10042800  1
  P  P20  1  0.75000700  0.74170800  0.58628000  1
  P  P21  1  0.75001600  0.24169500  0.58631800  1
  P  P22  1  0.24999800  0.25829100  0.41373300  1
  P  P23  1  0.24998900  0.75831600  0.41366800  1
  O  O24  1  0.74999000  0.68104800  0.95301800  1
  O  O25  1  0.74998500  0.18104200  0.95301300  1
  O  O26  1  0.25001400  0.31896200  0.04698000  1
  O  O27  1  0.25001700  0.81893900  0.04697700  1
  O  O28  1  0.25000600  0.70080300  0.88011600  1
  O  O29  1  0.25000400  0.20078700  0.88023500  1
  O  O30  1  0.74999300  0.29922000  0.11979900  1
  O  O31  1  0.74999800  0.79923500  0.11978200  1
  O  O32  1  0.75000500  0.08542300  0.58313800  1
  O  O33  1  0.75000600  0.58542000  0.58313500  1
  O  O34  1  0.25000000  0.91457700  0.41687900  1
  O  O35  1  0.25000000  0.41458000  0.41687100  1
  O  O36  1  0.25000000  0.12473900  0.55685800  1
  O  O37  1  0.24999700  0.62473900  0.55677900  1
  O  O38  1  0.75000200  0.87525700  0.44314900  1
  O  O39  1  0.75000600  0.37523100  0.44317800  1
  O  O40  1  0.04043600  0.95612200  0.82962700  1
  O  O41  1  0.04043200  0.45615700  0.82958800  1
  O  O42  1  0.45949000  0.95614600  0.82960600  1
  O  O43  1  0.45950300  0.45617700  0.82956900  1
  O  O44  1  0.54048700  0.04385300  0.17041700  1
  O  O45  1  0.54047300  0.54385200  0.17041800  1
  O  O46  1  0.95955900  0.04386500  0.17040500  1
  O  O47  1  0.95955600  0.54385500  0.17041000  1
  O  O48  1  0.54250900  0.77857700  0.65666000  1
  O  O49  1  0.54250100  0.27856700  0.65668200  1
  O  O50  1  0.95752100  0.77856600  0.65666800  1
  O  O51  1  0.95754900  0.27854900  0.65669300  1
  O  O52  1  0.04251100  0.22143300  0.34332400  1
  O  O53  1  0.04245400  0.72145700  0.34329600  1
  O  O54  1  0.45748000  0.22142200  0.34333300  1
  O  O55  1  0.45751800  0.72144200  0.34330600  1
