# generated using pymatgen
data_LiNb7V12O48
_symmetry_space_group_name_H-M   'P 1'
_cell_length_a   5.19911800
_cell_length_b   10.63797313
_cell_length_c   17.88376685
_cell_angle_alpha   89.91483820
_cell_angle_beta   88.32268367
_cell_angle_gamma   89.79950694
_symmetry_Int_Tables_number   1
_chemical_formula_structural   LiNb7V12O48
_chemical_formula_sum   'Li1 Nb7 V12 O48'
_cell_volume   988.68595351
_cell_formula_units_Z   1
loop_
 _symmetry_equiv_pos_site_id
 _symmetry_equiv_pos_as_xyz
  1  'x, y, z'
loop_
 _atom_site_type_symbol
 _atom_site_label
 _atom_site_symmetry_multiplicity
 _atom_site_fract_x
 _atom_site_fract_y
 _atom_site_fract_z
 _atom_site_occupancy
  Li  Li0  1  0.25182300  0.27011000  0.79695000  1
  Nb  Nb1  1  0.23326600  0.75369700  0.29559200  1
  Nb  Nb2  1  0.22416600  0.06904200  0.97369300  1
  Nb  Nb3  1  0.42179100  0.74586600  0.74974400  1
  Nb  Nb4  1  0.58404400  0.24639700  0.24739500  1
  Nb  Nb5  1  0.76302200  0.06430200  0.53232100  1
  Nb  Nb6  1  0.75549600  0.43789100  0.53127200  1
  Nb  Nb7  1  0.77479500  0.56894600  0.01920400  1
  V  V8  1  0.24002000  0.74983300  0.94354100  1
  V  V9  1  0.22279400  0.03512200  0.66344800  1
  V  V10  1  0.21646000  0.46557100  0.66150000  1
  V  V11  1  0.28199100  0.52273000  0.15398600  1
  V  V12  1  0.29136400  0.97289900  0.15749200  1
  V  V13  1  0.29024600  0.25053500  0.44386700  1
  V  V14  1  0.71278400  0.75082500  0.55697000  1
  V  V15  1  0.72376100  0.46703600  0.83664400  1
  V  V16  1  0.71635800  0.02336300  0.84347100  1
  V  V17  1  0.76029400  0.53257800  0.34116800  1
  V  V18  1  0.76505200  0.96840300  0.34369600  1
  V  V19  1  0.75941800  0.24718300  0.05617100  1
  O  O20  1  0.04079500  0.22696600  0.99749700  1
  O  O21  1  0.03601100  0.62646700  0.35617900  1
  O  O22  1  0.04040200  0.87644000  0.36212600  1
  O  O23  1  0.13575900  0.62921900  0.21456100  1
  O  O24  1  0.11240400  0.86666400  0.21833900  1
  O  O25  1  0.09022500  0.12693400  0.46621000  1
  O  O26  1  0.08946800  0.37373500  0.46556900  1
  O  O27  1  0.11895400  0.00866900  0.07601000  1
  O  O28  1  0.05755600  0.50167400  0.08389000  1
  O  O29  1  0.18923000  0.74553000  0.84822600  1
  O  O30  1  0.18885100  0.61581900  0.70225100  1
  O  O31  1  0.18921800  0.88725600  0.70408400  1
  O  O32  1  0.37327500  0.11659300  0.20760400  1
  O  O33  1  0.37016700  0.38276700  0.20089900  1
  O  O34  1  0.38547200  0.25086700  0.34796200  1
  O  O35  1  0.43667000  0.48033200  0.58020400  1
  O  O36  1  0.44685600  0.02391700  0.58344400  1
  O  O37  1  0.38198400  0.89021500  0.96499100  1
  O  O38  1  0.45781900  0.63500400  0.96864700  1
  O  O39  1  0.36708000  0.12627200  0.72189700  1
  O  O40  1  0.39374500  0.37534300  0.71183300  1
  O  O41  1  0.43851700  0.10650600  0.88403600  1
  O  O42  1  0.47880800  0.37543700  0.86040700  1
  O  O43  1  0.46853500  0.75061900  0.50304200  1
  O  O44  1  0.58084200  0.25041600  0.50329300  1
  O  O45  1  0.54941700  0.59746400  0.11557100  1
  O  O46  1  0.55086100  0.89948100  0.13198100  1
  O  O47  1  0.53466100  0.63003400  0.30065100  1
  O  O48  1  0.53509500  0.87152500  0.30424800  1
  O  O49  1  0.54118600  0.13560800  0.03276300  1
  O  O50  1  0.61963100  0.38792300  0.03594800  1
  O  O51  1  0.63020500  0.01762600  0.42720200  1
  O  O52  1  0.63088500  0.48445100  0.42629200  1
  O  O53  1  0.61512600  0.75190100  0.65320300  1
  O  O54  1  0.62021900  0.61509400  0.79127200  1
  O  O55  1  0.62247100  0.88303200  0.79780900  1
  O  O56  1  0.81064800  0.10690500  0.29130600  1
  O  O57  1  0.80412400  0.39573600  0.28870900  1
  O  O58  1  0.80665000  0.24340900  0.15431900  1
  O  O59  1  0.88388100  0.50591100  0.92547900  1
  O  O60  1  0.93526100  0.00269600  0.91957300  1
  O  O61  1  0.88875800  0.60681400  0.53719400  1
  O  O62  1  0.88961100  0.89390400  0.53639000  1
  O  O63  1  0.87950100  0.11105400  0.78473700  1
  O  O64  1  0.94016600  0.39018600  0.78311600  1
  O  O65  1  0.94515600  0.10978800  0.61908000  1
  O  O66  1  0.94054000  0.38883200  0.61750000  1
  O  O67  1  0.95890200  0.72704400  0.00263300  1
