# generated using pymatgen
data_Li2VP2O7
_symmetry_space_group_name_H-M   'P 1'
_cell_length_a   13.71476300
_cell_length_b   5.16057900
_cell_length_c   9.37147524
_cell_angle_alpha   58.28115352
_cell_angle_beta   90.00000000
_cell_angle_gamma   90.00000000
_symmetry_Int_Tables_number   1
_chemical_formula_structural   Li2VP2O7
_chemical_formula_sum   'Li8 V4 P8 O28'
_cell_volume   564.20845645
_cell_formula_units_Z   4
loop_
 _symmetry_equiv_pos_site_id
 _symmetry_equiv_pos_as_xyz
  1  'x, y, z'
loop_
 _atom_site_type_symbol
 _atom_site_label
 _atom_site_symmetry_multiplicity
 _atom_site_fract_x
 _atom_site_fract_y
 _atom_site_fract_z
 _atom_site_occupancy
  Li  Li0  1  0.60344600  0.04421000  0.63815700  1
  Li  Li1  1  0.19590100  0.56819200  0.66680500  1
  Li  Li2  1  0.69590100  0.43180800  0.83319500  1
  Li  Li3  1  0.10344600  0.95579000  0.86184300  1
  Li  Li4  1  0.89655400  0.04421000  0.13815700  1
  Li  Li5  1  0.30409900  0.56819200  0.16680500  1
  Li  Li6  1  0.80409900  0.43180800  0.33319500  1
  Li  Li7  1  0.39655400  0.95579000  0.36184300  1
  V  V8  1  0.84003500  0.02663900  0.76587800  1
  V  V9  1  0.34003500  0.97336100  0.73412200  1
  V  V10  1  0.65996500  0.02663900  0.26587800  1
  V  V11  1  0.15996500  0.97336100  0.23412200  1
  P  P12  1  0.82252100  0.73994500  0.53132900  1
  P  P13  1  0.47362500  0.47684900  0.72530200  1
  P  P14  1  0.97362500  0.52315100  0.77469800  1
  P  P15  1  0.32252100  0.26005500  0.96867100  1
  P  P16  1  0.67747900  0.73994500  0.03132900  1
  P  P17  1  0.02637500  0.47684900  0.22530200  1
  P  P18  1  0.52637500  0.52315100  0.27469800  1
  P  P19  1  0.17747900  0.26005500  0.46867100  1
  O  O20  1  0.93731200  0.70003800  0.57570300  1
  O  O21  1  0.78882100  0.44343600  0.54487400  1
  O  O22  1  0.77139900  0.79386400  0.65971500  1
  O  O23  1  0.18955800  0.98255900  0.64806900  1
  O  O24  1  0.39710500  0.72839600  0.62321800  1
  O  O25  1  0.47210600  0.22583800  0.68279200  1
  O  O26  1  0.57308800  0.60442000  0.72380800  1
  O  O27  1  0.07308800  0.39558000  0.77619200  1
  O  O28  1  0.97210600  0.77416200  0.81720800  1
  O  O29  1  0.89710500  0.27160400  0.87678200  1
  O  O30  1  0.27139900  0.20613600  0.84028500  1
  O  O31  1  0.68955800  0.01744100  0.85193100  1
  O  O32  1  0.28882100  0.55656400  0.95512600  1
  O  O33  1  0.43731200  0.29996200  0.92429700  1
  O  O34  1  0.56268800  0.70003800  0.07570300  1
  O  O35  1  0.71117900  0.44343600  0.04487400  1
  O  O36  1  0.31044200  0.98255900  0.14806900  1
  O  O37  1  0.72860100  0.79386400  0.15971500  1
  O  O38  1  0.10289500  0.72839600  0.12321800  1
  O  O39  1  0.02789400  0.22583800  0.18279200  1
  O  O40  1  0.92691200  0.60442000  0.22380800  1
  O  O41  1  0.42691200  0.39558000  0.27619200  1
  O  O42  1  0.52789400  0.77416200  0.31720800  1
  O  O43  1  0.60289500  0.27160400  0.37678200  1
  O  O44  1  0.81044200  0.01744100  0.35193100  1
  O  O45  1  0.22860100  0.20613600  0.34028500  1
  O  O46  1  0.21117900  0.55656400  0.45512600  1
  O  O47  1  0.06268800  0.29996200  0.42429700  1
