# generated using pymatgen
data_LiNiPO4
_symmetry_space_group_name_H-M   'P 1'
_cell_length_a   4.83951800
_cell_length_b   7.98340200
_cell_length_c   16.71133700
_cell_angle_alpha   90.00000000
_cell_angle_beta   90.00000000
_cell_angle_gamma   90.00000000
_symmetry_Int_Tables_number   1
_chemical_formula_structural   LiNiPO4
_chemical_formula_sum   'Li8 Ni8 P8 O32'
_cell_volume   645.65616952
_cell_formula_units_Z   8
loop_
 _symmetry_equiv_pos_site_id
 _symmetry_equiv_pos_as_xyz
  1  'x, y, z'
loop_
 _atom_site_type_symbol
 _atom_site_label
 _atom_site_symmetry_multiplicity
 _atom_site_fract_x
 _atom_site_fract_y
 _atom_site_fract_z
 _atom_site_occupancy
  Li  Li0  1  0.24789500  0.53614100  0.05578800  1
  Li  Li1  1  0.24789500  0.03614100  0.44421200  1
  Li  Li2  1  0.27116900  0.37706700  0.36420500  1
  Li  Li3  1  0.27116900  0.87706700  0.13579500  1
  Li  Li4  1  0.74789500  0.96385900  0.55578800  1
  Li  Li5  1  0.74789500  0.46385900  0.94421200  1
  Li  Li6  1  0.77116900  0.12293300  0.86420500  1
  Li  Li7  1  0.77116900  0.62293300  0.63579500  1
  Ni  Ni8  1  0.27590900  0.35392900  0.55210600  1
  Ni  Ni9  1  0.27590900  0.85392900  0.94789400  1
  Ni  Ni10  1  0.42386100  0.91924100  0.71931000  1
  Ni  Ni11  1  0.42386100  0.41924100  0.78069000  1
  Ni  Ni12  1  0.77590900  0.14607100  0.05210600  1
  Ni  Ni13  1  0.77590900  0.64607100  0.44789400  1
  Ni  Ni14  1  0.92386100  0.08075900  0.28069000  1
  Ni  Ni15  1  0.92386100  0.58075900  0.21931000  1
  P  P16  1  0.23823000  0.25209800  0.17307000  1
  P  P17  1  0.23823000  0.75209800  0.32693000  1
  P  P18  1  0.24037100  0.24720200  0.93812800  1
  P  P19  1  0.24037100  0.74720200  0.56187200  1
  P  P20  1  0.73823000  0.74790200  0.82693000  1
  P  P21  1  0.73823000  0.24790200  0.67307000  1
  P  P22  1  0.74037100  0.25279800  0.43812800  1
  P  P23  1  0.74037100  0.75279800  0.06187200  1
  O  O24  1  0.03106500  0.26244600  0.64122400  1
  O  O25  1  0.03106500  0.76244600  0.85877600  1
  O  O26  1  0.05535800  0.76149800  0.04369900  1
  O  O27  1  0.05535800  0.26149800  0.45630100  1
  O  O28  1  0.08974500  0.88120800  0.51368400  1
  O  O29  1  0.08974500  0.38120800  0.98631600  1
  O  O30  1  0.20232500  0.27615900  0.84757900  1
  O  O31  1  0.20232500  0.77615900  0.65242100  1
  O  O32  1  0.05594200  0.09726100  0.14493900  1
  O  O33  1  0.05594200  0.59726100  0.35506100  1
  O  O34  1  0.22090800  0.74301500  0.23437100  1
  O  O35  1  0.22090800  0.24301500  0.26562900  1
  O  O36  1  0.10306900  0.42059700  0.14854700  1
  O  O37  1  0.10306900  0.92059700  0.35145300  1
  O  O38  1  0.08624200  0.57932200  0.54151400  1
  O  O39  1  0.08624200  0.07932200  0.95848600  1
  O  O40  1  0.53106500  0.23755400  0.14122400  1
  O  O41  1  0.53106500  0.73755400  0.35877600  1
  O  O42  1  0.55535800  0.23850200  0.95630100  1
  O  O43  1  0.55535800  0.73850200  0.54369900  1
  O  O44  1  0.58974500  0.11879200  0.48631600  1
  O  O45  1  0.58974500  0.61879200  0.01368400  1
  O  O46  1  0.70232500  0.22384100  0.34757900  1
  O  O47  1  0.70232500  0.72384100  0.15242100  1
  O  O48  1  0.55594200  0.90273900  0.85506100  1
  O  O49  1  0.55594200  0.40273900  0.64493900  1
  O  O50  1  0.72090800  0.75698500  0.73437100  1
  O  O51  1  0.72090800  0.25698500  0.76562900  1
  O  O52  1  0.60306900  0.57940300  0.85145300  1
  O  O53  1  0.60306900  0.07940300  0.64854700  1
  O  O54  1  0.58624200  0.42067800  0.45848600  1
  O  O55  1  0.58624200  0.92067800  0.04151400  1
