# generated using pymatgen
data_Li4Cr3FeO8
_symmetry_space_group_name_H-M   'P 1'
_cell_length_a   5.12221700
_cell_length_b   7.77045429
_cell_length_c   7.79070226
_cell_angle_alpha   81.87376136
_cell_angle_beta   83.79320022
_cell_angle_gamma   71.01726840
_symmetry_Int_Tables_number   1
_chemical_formula_structural   Li4Cr3FeO8
_chemical_formula_sum   'Li8 Cr6 Fe2 O16'
_cell_volume   289.63729079
_cell_formula_units_Z   2
loop_
 _symmetry_equiv_pos_site_id
 _symmetry_equiv_pos_as_xyz
  1  'x, y, z'
loop_
 _atom_site_type_symbol
 _atom_site_label
 _atom_site_symmetry_multiplicity
 _atom_site_fract_x
 _atom_site_fract_y
 _atom_site_fract_z
 _atom_site_occupancy
  Li  Li0  1  0.50036000  0.87511500  0.87442700  1
  Li  Li1  1  0.49892600  0.62433700  0.62852400  1
  Li  Li2  1  0.50097100  0.74924300  0.25077600  1
  Li  Li3  1  0.49902900  0.25075700  0.74922400  1
  Li  Li4  1  0.50107400  0.37566300  0.37147600  1
  Li  Li5  1  0.50000000  0.50000000  0.00000000  1
  Li  Li6  1  0.50000000  0.00000000  0.50000000  1
  Li  Li7  1  0.49964000  0.12488500  0.12557300  1
  Cr  Cr8  1  0.00034700  0.68553400  0.43848800  1
  Cr  Cr9  1  0.99990300  0.80963100  0.06237200  1
  Cr  Cr10  1  0.99965300  0.31446600  0.56151200  1
  Cr  Cr11  1  0.00018700  0.93565100  0.68802300  1
  Cr  Cr12  1  0.99981300  0.06434900  0.31197700  1
  Cr  Cr13  1  0.00009700  0.19036900  0.93762800  1
  Fe  Fe14  1  0.00006800  0.56165400  0.81435300  1
  Fe  Fe15  1  0.99993200  0.43834600  0.18564700  1
  O  O16  1  0.22347800  0.72010900  0.84497100  1
  O  O17  1  0.77596700  0.77166200  0.65869300  1
  O  O18  1  0.22658000  0.84837300  0.46944400  1
  O  O19  1  0.77671800  0.40448500  0.78057300  1
  O  O20  1  0.22450400  0.47469400  0.59935500  1
  O  O21  1  0.22328200  0.59551500  0.21942700  1
  O  O22  1  0.77549600  0.52530600  0.40064500  1
  O  O23  1  0.22643600  0.09881600  0.71914900  1
  O  O24  1  0.22403300  0.22833800  0.34130700  1
  O  O25  1  0.77744300  0.64641500  0.02929400  1
  O  O26  1  0.77342000  0.15162700  0.53055600  1
  O  O27  1  0.22255700  0.35358500  0.97070600  1
  O  O28  1  0.77652200  0.27989100  0.15502900  1
  O  O29  1  0.22630700  0.97336900  0.09424500  1
  O  O30  1  0.77356400  0.90118400  0.28085100  1
  O  O31  1  0.77369300  0.02663100  0.90575500  1
