# generated using pymatgen
data_Li2Mn2(PO4)3
_symmetry_space_group_name_H-M   'P 1'
_cell_length_a   8.54005200
_cell_length_b   8.59423217
_cell_length_c   12.31942441
_cell_angle_alpha   90.09238415
_cell_angle_beta   91.09087597
_cell_angle_gamma   90.37611527
_symmetry_Int_Tables_number   1
_chemical_formula_structural   Li2Mn2(PO4)3
_chemical_formula_sum   'Li8 Mn8 P12 O48'
_cell_volume   904.00177016
_cell_formula_units_Z   4
loop_
 _symmetry_equiv_pos_site_id
 _symmetry_equiv_pos_as_xyz
  1  'x, y, z'
loop_
 _atom_site_type_symbol
 _atom_site_label
 _atom_site_symmetry_multiplicity
 _atom_site_fract_x
 _atom_site_fract_y
 _atom_site_fract_z
 _atom_site_occupancy
  Li  Li0  1  0.22867900  0.77169400  0.81412400  1
  Li  Li1  1  0.28098500  0.22008900  0.32028000  1
  Li  Li2  1  0.28399500  0.27231800  0.68735700  1
  Li  Li3  1  0.69613500  0.73578800  0.30832200  1
  Li  Li4  1  0.77905100  0.28218500  0.82147500  1
  Li  Li5  1  0.78009200  0.22651300  0.18665200  1
  Li  Li6  1  0.92453900  0.91894100  0.70487200  1
  Li  Li7  1  0.95278600  0.57997200  0.28272600  1
  Mn  Mn8  1  0.25186900  0.46006300  0.88743500  1
  Mn  Mn9  1  0.25030000  0.03130900  0.11458800  1
  Mn  Mn10  1  0.25527400  0.95971100  0.60976800  1
  Mn  Mn11  1  0.25716900  0.54036800  0.38478000  1
  Mn  Mn12  1  0.74967900  0.46615700  0.61643200  1
  Mn  Mn13  1  0.75185600  0.04018900  0.38812100  1
  Mn  Mn14  1  0.74323400  0.96022300  0.88885900  1
  Mn  Mn15  1  0.74769600  0.53916600  0.10553700  1
  P  P16  1  0.03862000  0.25227400  0.50277200  1
  P  P17  1  0.10693200  0.39303700  0.14805500  1
  P  P18  1  0.10388600  0.10268400  0.86102500  1
  P  P19  1  0.39852600  0.60338700  0.64000300  1
  P  P20  1  0.39527600  0.89422300  0.34904800  1
  P  P21  1  0.46078600  0.75230500  0.00125400  1
  P  P22  1  0.53417900  0.24633200  0.00183700  1
  P  P23  1  0.60804700  0.10553600  0.64934400  1
  P  P24  1  0.61197600  0.39691900  0.36269400  1
  P  P25  1  0.89995900  0.60926600  0.84886900  1
  P  P26  1  0.89694400  0.89729300  0.14217400  1
  P  P27  1  0.95730600  0.74598400  0.49823500  1
  O  O28  1  0.05737900  0.64552100  0.42081300  1
  O  O29  1  0.05100700  0.85561400  0.57537500  1
  O  O30  1  0.08007000  0.60067200  0.83684900  1
  O  O31  1  0.07759700  0.89904900  0.15405000  1
  O  O32  1  0.15164500  0.07023500  0.97843800  1
  O  O33  1  0.15513300  0.43843200  0.03642600  1
  O  O34  1  0.14611800  0.15980000  0.58287100  1
  O  O35  1  0.14959500  0.34216400  0.42408600  1
  O  O36  1  0.16062000  0.26564300  0.82399100  1
  O  O37  1  0.15829300  0.22571500  0.18084100  1
  O  O38  1  0.16026700  0.97725400  0.78205000  1
  O  O39  1  0.16917000  0.51100700  0.23630500  1
  O  O40  1  0.32397600  0.48434800  0.71476300  1
  O  O41  1  0.32045300  0.01143100  0.26633600  1
  O  O42  1  0.35610500  0.72251700  0.32054700  1
  O  O43  1  0.34396200  0.76945300  0.67399000  1
  O  O44  1  0.35376000  0.65948600  0.92160600  1
  O  O45  1  0.35409000  0.84466000  0.07693100  1
  O  O46  1  0.35143200  0.57260000  0.52059400  1
  O  O47  1  0.33959200  0.94590600  0.45866900  1
  O  O48  1  0.42785500  0.09814600  0.66365600  1
  O  O49  1  0.42996300  0.39859800  0.34171500  1
  O  O50  1  0.44280300  0.35355900  0.92553100  1
  O  O51  1  0.43934700  0.14090800  0.07606700  1
  O  O52  1  0.55851800  0.64955700  0.07768400  1
  O  O53  1  0.55629400  0.85431700  0.92219300  1
  O  O54  1  0.57955900  0.60354800  0.65349000  1
  O  O55  1  0.57557800  0.90881900  0.33846500  1
  O  O56  1  0.65718100  0.06111200  0.53699000  1
  O  O57  1  0.64595900  0.42037400  0.48383400  1
  O  O58  1  0.64471700  0.15679200  0.92308100  1
  O  O59  1  0.64468700  0.33749700  0.08112700  1
  O  O60  1  0.65977300  0.27464200  0.68211900  1
  O  O61  1  0.66142700  0.23268200  0.32458900  1
  O  O62  1  0.69217400  0.99053300  0.72953800  1
  O  O63  1  0.69709500  0.51874000  0.29434400  1
  O  O64  1  0.82311600  0.49003500  0.76744600  1
  O  O65  1  0.82257900  0.01576000  0.21695900  1
  O  O66  1  0.85550900  0.78032400  0.82086200  1
  O  O67  1  0.84745100  0.72841100  0.17907900  1
  O  O68  1  0.85570900  0.65327600  0.57743400  1
  O  O69  1  0.84777200  0.83341600  0.41841100  1
  O  O70  1  0.84545000  0.56012100  0.95930200  1
  O  O71  1  0.84608300  0.92415400  0.02352300  1
  O  O72  1  0.92066800  0.10548400  0.84740300  1
  O  O73  1  0.92382900  0.40339100  0.16168200  1
  O  O74  1  0.94119700  0.35695800  0.57558100  1
  O  O75  1  0.94502000  0.14341100  0.42670200  1
