# generated using pymatgen
data_Li4Mn3V(PO4)4
_symmetry_space_group_name_H-M   'P 1'
_cell_length_a   6.17036800
_cell_length_b   4.78989500
_cell_length_c   10.55919726
_cell_angle_alpha   89.97199022
_cell_angle_beta   90.00000000
_cell_angle_gamma   90.00000000
_symmetry_Int_Tables_number   1
_chemical_formula_structural   Li4Mn3V(PO4)4
_chemical_formula_sum   'Li4 Mn3 V1 P4 O16'
_cell_volume   312.08141807
_cell_formula_units_Z   1
loop_
 _symmetry_equiv_pos_site_id
 _symmetry_equiv_pos_as_xyz
  1  'x, y, z'
loop_
 _atom_site_type_symbol
 _atom_site_label
 _atom_site_symmetry_multiplicity
 _atom_site_fract_x
 _atom_site_fract_y
 _atom_site_fract_z
 _atom_site_occupancy
  Li  Li0  1  0.24922700  0.00017100  0.00034800  1
  Li  Li1  1  0.75077300  0.00017100  0.00034800  1
  Li  Li2  1  0.74900400  0.50062000  0.50084200  1
  Li  Li3  1  0.25099600  0.50062000  0.50084200  1
  Mn  Mn4  1  0.00000000  0.02813800  0.28171500  1
  Mn  Mn5  1  0.00000000  0.47343700  0.77960600  1
  Mn  Mn6  1  0.50000000  0.52768500  0.21970700  1
  V  V7  1  0.50000000  0.97803500  0.72311300  1
  P  P8  1  0.50000000  0.08938700  0.40919800  1
  P  P9  1  0.50000000  0.40973400  0.90665700  1
  P  P10  1  0.00000000  0.58999500  0.09171000  1
  P  P11  1  0.00000000  0.90938700  0.59183600  1
  O  O12  1  0.50000000  0.20976800  0.54589400  1
  O  O13  1  0.29970300  0.22340700  0.33950800  1
  O  O14  1  0.70029700  0.22340700  0.33950800  1
  O  O15  1  0.00000000  0.23066100  0.59597200  1
  O  O16  1  0.00000000  0.26929700  0.09576600  1
  O  O17  1  0.29940100  0.27437900  0.83744100  1
  O  O18  1  0.70059900  0.27437900  0.83744100  1
  O  O19  1  0.50000000  0.28980900  0.04352900  1
  O  O20  1  0.00000000  0.71140200  0.95481700  1
  O  O21  1  0.79931600  0.72321700  0.16075500  1
  O  O22  1  0.20068400  0.72321700  0.16075500  1
  O  O23  1  0.50000000  0.73021900  0.90253900  1
  O  O24  1  0.50000000  0.76879200  0.40368600  1
  O  O25  1  0.79896100  0.77630600  0.66069400  1
  O  O26  1  0.20103900  0.77630600  0.66069400  1
  O  O27  1  0.00000000  0.78805800  0.45507600  1
