# generated using pymatgen
data_Li6V3P8O29
_symmetry_space_group_name_H-M   'P 1'
_cell_length_a   9.78744842
_cell_length_b   9.78744842
_cell_length_c   13.97841648
_cell_angle_alpha   89.64815702
_cell_angle_beta   89.64815702
_cell_angle_gamma   60.01877628
_symmetry_Int_Tables_number   1
_chemical_formula_structural   Li6V3P8O29
_chemical_formula_sum   'Li12 V6 P16 O58'
_cell_volume   1159.84191231
_cell_formula_units_Z   2
loop_
 _symmetry_equiv_pos_site_id
 _symmetry_equiv_pos_as_xyz
  1  'x, y, z'
loop_
 _atom_site_type_symbol
 _atom_site_label
 _atom_site_symmetry_multiplicity
 _atom_site_fract_x
 _atom_site_fract_y
 _atom_site_fract_z
 _atom_site_occupancy
  Li  Li0  1  0.10198500  0.66148200  0.19370800  1
  Li  Li1  1  0.66835700  0.23389900  0.19219100  1
  Li  Li2  1  0.66450800  0.09933800  0.68832700  1
  Li  Li3  1  0.10098800  0.23560200  0.68733300  1
  Li  Li4  1  0.76439800  0.89901200  0.31266700  1
  Li  Li5  1  0.23731300  0.09799900  0.19049500  1
  Li  Li6  1  0.90200100  0.76268700  0.80950500  1
  Li  Li7  1  0.33851800  0.89801500  0.80629200  1
  Li  Li8  1  0.90066200  0.33549200  0.31167300  1
  Li  Li9  1  0.76610100  0.33164300  0.80780900  1
  Li  Li10  1  0.04233300  0.94616500  0.73463800  1
  Li  Li11  1  0.05383500  0.95766700  0.26536200  1
  V  V12  1  0.56269300  0.00132300  0.49854500  1
  V  V13  1  0.43226000  0.99904300  0.99990100  1
  V  V14  1  0.00095700  0.56774000  0.00009900  1
  V  V15  1  0.99867700  0.43730700  0.50145500  1
  V  V16  1  0.43390700  0.56609300  0.50000000  1
  V  V17  1  0.56163600  0.43836400  0.00000000  1
  P  P18  1  0.22336400  0.69501600  0.90598400  1
  P  P19  1  0.08694600  0.69131200  0.41053800  1
  P  P20  1  0.68900000  0.22584400  0.40757500  1
  P  P21  1  0.33622100  0.33186800  0.61878400  1
  P  P22  1  0.33226700  0.33210700  0.11948100  1
  P  P23  1  0.68509000  0.08803800  0.90847400  1
  P  P24  1  0.77118200  0.91307700  0.09314700  1
  P  P25  1  0.08692300  0.22881800  0.90685300  1
  P  P26  1  0.90927700  0.77767600  0.59425300  1
  P  P27  1  0.22232400  0.09072300  0.40574700  1
  P  P28  1  0.30868800  0.91305400  0.58946200  1
  P  P29  1  0.66813200  0.66377900  0.38121600  1
  P  P30  1  0.66789300  0.66773300  0.88051900  1
  P  P31  1  0.30498400  0.77663600  0.09401600  1
  P  P32  1  0.91196200  0.31491000  0.09152600  1
  P  P33  1  0.77415600  0.31100000  0.59242500  1
  O  O34  1  0.20352000  0.78873500  0.17819800  1
  O  O35  1  0.25305700  0.66467700  0.41144600  1
  O  O36  1  0.98571300  0.79018700  0.68427300  1
  O  O37  1  0.08191900  0.66436900  0.90838600  1
  O  O38  1  0.38078200  0.53981900  0.91702600  1
  O  O39  1  0.33120500  0.48003600  0.57163100  1
  O  O40  1  0.53330200  0.37955200  0.41746100  1
  O  O41  1  0.78030800  0.21815900  0.68129800  1
  O  O42  1  0.66230900  0.25672100  0.90870500  1
  O  O43  1  0.18884900  0.48961100  0.07984300  1
  O  O44  1  0.08374200  0.53608600  0.42208200  1
  O  O45  1  0.48703400  0.32128900  0.07765800  1
  O  O46  1  0.34437500  0.32378400  0.72519600  1
  O  O47  1  0.33184300  0.33004500  0.22645800  1
  O  O48  1  0.49057100  0.18704000  0.57606800  1
  O  O49  1  0.09197000  0.38106800  0.92152500  1
  O  O50  1  0.18988400  0.32331700  0.58052300  1
  O  O51  1  0.66505300  0.08025200  0.40807400  1
  O  O52  1  0.79395000  0.00136600  0.00097000  1
  O  O53  1  0.76942900  0.99963400  0.18263000  1
  O  O54  1  0.77188200  0.00009300  0.81951000  1
  O  O55  1  0.52767600  0.09147900  0.92282800  1
  O  O56  1  0.31935600  0.18967700  0.07828500  1
  O  O57  1  0.73796200  0.91978000  0.59002500  1
  O  O58  1  0.37931900  0.08768900  0.41655200  1
  O  O59  1  0.08022000  0.26203800  0.40997500  1
  O  O60  1  0.99582800  0.80058300  0.50213800  1
  O  O61  1  0.99961300  0.78202300  0.32093500  1
  O  O62  1  0.99990700  0.22811800  0.18049000  1
  O  O63  1  0.91846900  0.74526400  0.09236000  1
  O  O64  1  0.61893200  0.90803000  0.07847500  1
  O  O65  1  0.25473600  0.08153100  0.90764000  1
  O  O66  1  0.67668300  0.81011600  0.41947700  1
  O  O67  1  0.46391400  0.91625800  0.57791800  1
  O  O68  1  0.21797700  0.00038700  0.67906500  1
  O  O69  1  0.20981300  0.01428700  0.31572700  1
  O  O70  1  0.19941700  0.00417200  0.49786200  1
  O  O71  1  0.33563100  0.91808100  0.09161400  1
  O  O72  1  0.81032300  0.68064400  0.92171500  1
  O  O73  1  0.91231100  0.62068100  0.58344800  1
  O  O74  1  0.51038900  0.81115100  0.92015700  1
  O  O75  1  0.66995500  0.66815700  0.77354200  1
  O  O76  1  0.67621500  0.65562500  0.27480400  1
  O  O77  1  0.51996400  0.66879500  0.42836900  1
  O  O78  1  0.90852100  0.47232400  0.07717200  1
  O  O79  1  0.81296000  0.50942900  0.42393200  1
  O  O80  1  0.33532300  0.74694300  0.58855400  1
  O  O81  1  0.20116500  0.79883500  0.00000000  1
  O  O82  1  0.21126500  0.79648000  0.82180200  1
  O  O83  1  0.46018100  0.61921800  0.08297400  1
  O  O84  1  0.67871100  0.51296600  0.92234200  1
  O  O85  1  0.62044800  0.46669800  0.58253900  1
  O  O86  1  0.91974800  0.33494700  0.59192600  1
  O  O87  1  0.00036600  0.23057100  0.81737000  1
  O  O88  1  0.99863400  0.20605000  0.99903000  1
  O  O89  1  0.74327900  0.33769100  0.09129500  1
  O  O90  1  0.78184100  0.21969200  0.31870200  1
  O  O91  1  0.79864500  0.20135500  0.50000000  1
