# generated using pymatgen
data_LiTiVO4
_symmetry_space_group_name_H-M   'P 1'
_cell_length_a   7.88263591
_cell_length_b   7.95023336
_cell_length_c   8.12294377
_cell_angle_alpha   67.93373004
_cell_angle_beta   97.34083693
_cell_angle_gamma   85.94387322
_symmetry_Int_Tables_number   1
_chemical_formula_structural   LiTiVO4
_chemical_formula_sum   'Li6 Ti6 V6 O24'
_cell_volume   463.97965943
_cell_formula_units_Z   6
loop_
 _symmetry_equiv_pos_site_id
 _symmetry_equiv_pos_as_xyz
  1  'x, y, z'
loop_
 _atom_site_type_symbol
 _atom_site_label
 _atom_site_symmetry_multiplicity
 _atom_site_fract_x
 _atom_site_fract_y
 _atom_site_fract_z
 _atom_site_occupancy
  Li  Li0  1  0.75484700  0.00803100  0.23934100  1
  Li  Li1  1  0.25483900  0.00831600  0.73908500  1
  Li  Li2  1  0.50129300  0.33115100  0.16945800  1
  Li  Li3  1  0.00138300  0.33115800  0.66968600  1
  Li  Li4  1  0.74187900  0.65955600  0.59547600  1
  Li  Li5  1  0.24205000  0.65917600  0.09552000  1
  Ti  Ti6  1  0.85887500  0.00411800  0.62045600  1
  Ti  Ti7  1  0.35861800  0.00406200  0.11990500  1
  Ti  Ti8  1  0.89764500  0.34549500  0.29880200  1
  Ti  Ti9  1  0.39757400  0.34548900  0.79872000  1
  Ti  Ti10  1  0.62557100  0.67125600  0.20453100  1
  Ti  Ti11  1  0.12582200  0.67158100  0.70449900  1
  V  V12  1  0.12875200  0.00221100  0.37666600  1
  V  V13  1  0.61135700  0.32607600  0.53148300  1
  V  V14  1  0.87280900  0.66526500  0.95591200  1
  V  V15  1  0.62871000  0.00212400  0.87657900  1
  V  V16  1  0.11137800  0.32623300  0.03169500  1
  V  V17  1  0.37260200  0.66506600  0.45578900  1
  O  O18  1  0.79937700  0.15899700  0.74187400  1
  O  O19  1  0.29924100  0.15899700  0.24166500  1
  O  O20  1  0.04478300  0.16312300  0.51669700  1
  O  O21  1  0.54462000  0.16299700  0.01658700  1
  O  O22  1  0.05026900  0.49308400  0.16760400  1
  O  O23  1  0.55018400  0.49303000  0.66723700  1
  O  O24  1  0.79577000  0.48724400  0.42776200  1
  O  O25  1  0.29589700  0.48720200  0.92772100  1
  O  O26  1  0.78926300  0.82518100  0.09084300  1
  O  O27  1  0.28939400  0.82535900  0.59089300  1
  O  O28  1  0.55568500  0.82095100  0.33481600  1
  O  O29  1  0.05583500  0.82125800  0.83476400  1
  O  O30  1  0.70999200  0.16870700  0.40328200  1
  O  O31  1  0.20982900  0.16883500  0.90296400  1
  O  O32  1  0.94796600  0.17647800  0.17823100  1
  O  O33  1  0.44794700  0.17648200  0.67811200  1
  O  O34  1  0.70814600  0.50030800  0.09986800  1
  O  O35  1  0.20813300  0.50050200  0.59979200  1
  O  O36  1  0.45048200  0.51119800  0.31177400  1
  O  O37  1  0.95062200  0.51143900  0.81217000  1
  O  O38  1  0.44899400  0.84033700  0.00103700  1
  O  O39  1  0.94919800  0.84040800  0.50112100  1
  O  O40  1  0.70961600  0.83997300  0.73929400  1
  O  O41  1  0.20958500  0.83992300  0.23927300  1
