# generated using pymatgen
data_Li9V12Cr7O48
_symmetry_space_group_name_H-M   'P 1'
_cell_length_a   5.04344100
_cell_length_b   10.25605112
_cell_length_c   17.17957276
_cell_angle_alpha   89.75273898
_cell_angle_beta   89.58181674
_cell_angle_gamma   89.91563772
_symmetry_Int_Tables_number   1
_chemical_formula_structural   Li9V12Cr7O48
_chemical_formula_sum   'Li9 V12 Cr7 O48'
_cell_volume   888.59408498
_cell_formula_units_Z   1
loop_
 _symmetry_equiv_pos_site_id
 _symmetry_equiv_pos_as_xyz
  1  'x, y, z'
loop_
 _atom_site_type_symbol
 _atom_site_label
 _atom_site_symmetry_multiplicity
 _atom_site_fract_x
 _atom_site_fract_y
 _atom_site_fract_z
 _atom_site_occupancy
  Li  Li0  1  0.75346200  0.57855500  0.96730000  1
  Li  Li1  1  0.74414100  0.25455500  0.30425500  1
  Li  Li2  1  0.74696400  0.74276700  0.79814600  1
  Li  Li3  1  0.74864700  0.41898900  0.46951700  1
  Li  Li4  1  0.60130400  0.25148400  0.74980100  1
  Li  Li5  1  0.40047900  0.75069300  0.25033100  1
  Li  Li6  1  0.25107300  0.91877500  0.53089400  1
  Li  Li7  1  0.25421400  0.25284800  0.20158600  1
  Li  Li8  1  0.25473500  0.75054600  0.69637600  1
  V  V9  1  0.79147600  0.25139500  0.94360600  1
  V  V10  1  0.78459500  0.97452700  0.65822600  1
  V  V11  1  0.78664100  0.52635400  0.65265700  1
  V  V12  1  0.72260200  0.47357100  0.15533700  1
  V  V13  1  0.71578000  0.02819000  0.15708500  1
  V  V14  1  0.72399800  0.74839300  0.44457300  1
  V  V15  1  0.27576800  0.24799300  0.55497100  1
  V  V16  1  0.28961000  0.97213800  0.84307300  1
  V  V17  1  0.27502800  0.52593300  0.84329100  1
  V  V18  1  0.21512700  0.47319200  0.34291700  1
  V  V19  1  0.21264400  0.02547400  0.34646400  1
  V  V20  1  0.21143700  0.75211600  0.05744400  1
  Cr  Cr21  1  0.90244200  0.74991200  0.25342200  1
  Cr  Cr22  1  0.75490800  0.92905200  0.97378900  1
  Cr  Cr23  1  0.74134800  0.06749000  0.47575000  1
  Cr  Cr24  1  0.25956600  0.56738400  0.52410400  1
  Cr  Cr25  1  0.25001100  0.43301300  0.02716300  1
  Cr  Cr26  1  0.25477700  0.07265400  0.02730700  1
  Cr  Cr27  1  0.10065100  0.25140100  0.74594300  1
  O  O28  1  0.93398300  0.76236100  0.99614400  1
  O  O29  1  0.94903100  0.38537300  0.37097900  1
  O  O30  1  0.91714200  0.10974700  0.38074200  1
  O  O31  1  0.90491800  0.37497200  0.20852900  1
  O  O32  1  0.90286300  0.12197800  0.21103500  1
  O  O33  1  0.89776700  0.89120700  0.46589700  1
  O  O34  1  0.94060000  0.62379800  0.46702800  1
  O  O35  1  0.92023000  0.99792200  0.07041300  1
  O  O36  1  0.92915600  0.50214300  0.07374500  1
  O  O37  1  0.86857100  0.25140700  0.84658900  1
  O  O38  1  0.86871600  0.38126200  0.70386500  1
  O  O39  1  0.87533100  0.12395900  0.70888800  1
  O  O40  1  0.66873100  0.87743300  0.20580300  1
  O  O41  1  0.67633200  0.62273700  0.20496700  1
  O  O42  1  0.66561300  0.74755200  0.34362500  1
  O  O43  1  0.59167500  0.01186000  0.57213900  1
  O  O44  1  0.57400300  0.49402400  0.57407200  1
  O  O45  1  0.59211200  0.11008700  0.96624400  1
  O  O46  1  0.57164200  0.37388500  0.96644500  1
  O  O47  1  0.58440700  0.88343700  0.71634600  1
  O  O48  1  0.60333100  0.62387300  0.70812900  1
  O  O49  1  0.58472200  0.88939600  0.87906500  1
  O  O50  1  0.55042600  0.61016900  0.87023900  1
  O  O51  1  0.56355600  0.23560800  0.49467200  1
  O  O52  1  0.43730600  0.73609800  0.50492400  1
  O  O53  1  0.42001300  0.39047600  0.11962800  1
  O  O54  1  0.43001800  0.11303300  0.12549300  1
  O  O55  1  0.41422000  0.38098400  0.28589100  1
  O  O56  1  0.39182900  0.12152100  0.28874800  1
  O  O57  1  0.42250400  0.89043300  0.03570700  1
  O  O58  1  0.39459700  0.61262900  0.03582600  1
  O  O59  1  0.42478400  0.99462100  0.42512800  1
  O  O60  1  0.40930300  0.51280900  0.42817500  1
  O  O61  1  0.33307900  0.24630800  0.65620600  1
  O  O62  1  0.32714600  0.37515700  0.79121000  1
  O  O63  1  0.33234300  0.12106600  0.79536100  1
  O  O64  1  0.12524800  0.88022200  0.29505600  1
  O  O65  1  0.12837700  0.62305700  0.29178800  1
  O  O66  1  0.12830800  0.75455100  0.15427600  1
  O  O67  1  0.09145000  0.48063500  0.93014800  1
  O  O68  1  0.08431500  0.00839300  0.92841700  1
  O  O69  1  0.10177100  0.39062900  0.53408700  1
  O  O70  1  0.05995100  0.12362000  0.53311900  1
  O  O71  1  0.09169900  0.87643900  0.79337400  1
  O  O72  1  0.08253100  0.62426300  0.78892800  1
  O  O73  1  0.04944000  0.88554000  0.63051600  1
  O  O74  1  0.08362000  0.61031300  0.61844200  1
  O  O75  1  0.07786300  0.25161400  0.00862500  1
