# generated using pymatgen
data_LiFeSnO4
_symmetry_space_group_name_H-M   'P 1'
_cell_length_a   6.06921841
_cell_length_b   6.31630800
_cell_length_c   8.74738000
_cell_angle_alpha   90.00000655
_cell_angle_beta   90.00000292
_cell_angle_gamma   90.00000000
_symmetry_Int_Tables_number   1
_chemical_formula_structural   LiFeSnO4
_chemical_formula_sum   'Li4 Fe4 Sn4 O16'
_cell_volume   335.33127418
_cell_formula_units_Z   4
loop_
 _symmetry_equiv_pos_site_id
 _symmetry_equiv_pos_as_xyz
  1  'x, y, z'
loop_
 _atom_site_type_symbol
 _atom_site_label
 _atom_site_symmetry_multiplicity
 _atom_site_fract_x
 _atom_site_fract_y
 _atom_site_fract_z
 _atom_site_occupancy
  Li  Li0  1  0.00000000  0.25000000  0.12837200  1
  Li  Li1  1  0.50000000  0.75000000  0.62837200  1
  Li  Li2  1  0.00000000  0.75000000  0.87162800  1
  Li  Li3  1  0.50000000  0.25000000  0.37162800  1
  Fe  Fe4  1  0.75000000  0.25000000  0.75000000  1
  Fe  Fe5  1  0.25000000  0.25000000  0.75000000  1
  Fe  Fe6  1  0.25000000  0.75000000  0.25000000  1
  Fe  Fe7  1  0.75000000  0.75000000  0.25000000  1
  Sn  Sn8  1  0.00000000  0.50000000  0.50000000  1
  Sn  Sn9  1  0.50000000  0.00000000  0.00000000  1
  Sn  Sn10  1  0.00000000  0.00000000  0.50000000  1
  Sn  Sn11  1  0.50000000  0.50000000  0.00000000  1
  O  O12  1  0.00000000  0.52901900  0.26196100  1
  O  O13  1  0.50000000  0.02901900  0.76196100  1
  O  O14  1  0.00000000  0.97098200  0.26196100  1
  O  O15  1  0.50000000  0.47098200  0.76196100  1
  O  O16  1  0.00000000  0.02901800  0.73803900  1
  O  O17  1  0.50000000  0.52901800  0.23803900  1
  O  O18  1  0.00000000  0.47098100  0.73803900  1
  O  O19  1  0.50000000  0.97098100  0.23803900  1
  O  O20  1  0.23208200  0.75000000  0.48945300  1
  O  O21  1  0.73208200  0.25000000  0.98945300  1
  O  O22  1  0.76791800  0.75000000  0.48945300  1
  O  O23  1  0.26791800  0.25000000  0.98945300  1
  O  O24  1  0.76791800  0.25000000  0.51054700  1
  O  O25  1  0.26791800  0.75000000  0.01054700  1
  O  O26  1  0.23208200  0.25000000  0.51054700  1
  O  O27  1  0.73208200  0.75000000  0.01054700  1
