# generated using pymatgen
data_Li4AlCr3O8
_symmetry_space_group_name_H-M   'P 1'
_cell_length_a   5.10927620
_cell_length_b   5.86610650
_cell_length_c   10.57097273
_cell_angle_alpha   106.07405366
_cell_angle_beta   85.42351097
_cell_angle_gamma   73.33287363
_symmetry_Int_Tables_number   1
_chemical_formula_structural   Li4AlCr3O8
_chemical_formula_sum   'Li8 Al2 Cr6 O16'
_cell_volume   287.25677739
_cell_formula_units_Z   2
loop_
 _symmetry_equiv_pos_site_id
 _symmetry_equiv_pos_as_xyz
  1  'x, y, z'
loop_
 _atom_site_type_symbol
 _atom_site_label
 _atom_site_symmetry_multiplicity
 _atom_site_fract_x
 _atom_site_fract_y
 _atom_site_fract_z
 _atom_site_occupancy
  Li  Li0  1  -0.00001789  0.12498638  0.74978687  1
  Li  Li1  1  0.99968463  0.99991401  0.00106300  1
  Li  Li2  1  0.00059077  0.24855019  0.49884696  1
  Li  Li3  1  0.99996993  0.37502327  0.25000440  1
  Li  Li4  1  0.00004587  0.62499355  0.75020193  1
  Li  Li5  1  0.99939446  0.50143739  0.00114537  1
  Li  Li6  1  0.00031462  0.75009139  0.49893040  1
  Li  Li7  1  0.99998102  0.87501129  0.25001115  1
  Al  Al8  1  0.50023453  0.81271106  0.37319969  1
  Al  Al9  1  0.49974214  0.93728542  0.12680101  1
  Cr  Cr10  1  0.49987189  0.06234078  0.87713222  1
  Cr  Cr11  1  0.49980747  0.18575074  0.62359408  1
  Cr  Cr12  1  0.49966452  0.31031883  0.37326570  1
  Cr  Cr13  1  0.50022645  0.56424271  0.87640538  1
  Cr  Cr14  1  0.50026064  0.43969455  0.12674353  1
  Cr  Cr15  1  0.50017429  0.68764606  0.62286921  1
  O  O16  1  0.28303258  0.07394655  0.30670407  1
  O  O17  1  0.72024002  0.02878945  0.43613886  1
  O  O18  1  0.27288156  0.33697287  0.81108300  1
  O  O19  1  0.72735311  0.28865389  0.94049884  1
  O  O20  1  0.72013564  0.15408650  0.18673782  1
  O  O21  1  0.27808453  0.20419714  0.06518599  1
  O  O22  1  0.27265474  0.46138075  0.55951743  1
  O  O23  1  0.72717712  0.41300573  0.68891138  1
  O  O24  1  0.27977443  0.59594486  0.31326982  1
  O  O25  1  0.72187460  0.54577811  0.43480300  1
  O  O26  1  0.27280900  0.83703962  0.81006178  1
  O  O27  1  0.72152320  0.79276702  0.94770936  1
  O  O28  1  0.27977309  0.72121960  0.06385249  1
  O  O29  1  0.27854198  0.95722625  0.55228833  1
  O  O30  1  0.71693391  0.67604402  0.19330661  1
  O  O31  1  0.72726616  0.91295003  0.68993232  1
