# generated using pymatgen
data_Li7Mn8(BO3)8
_symmetry_space_group_name_H-M   'P 1'
_cell_length_a   5.29524700
_cell_length_b   9.03900248
_cell_length_c   11.57748846
_cell_angle_alpha   112.74322362
_cell_angle_beta   100.91989128
_cell_angle_gamma   90.09522042
_symmetry_Int_Tables_number   1
_chemical_formula_structural   Li7Mn8(BO3)8
_chemical_formula_sum   'Li7 Mn8 B8 O24'
_cell_volume   500.08260150
_cell_formula_units_Z   1
loop_
 _symmetry_equiv_pos_site_id
 _symmetry_equiv_pos_as_xyz
  1  'x, y, z'
loop_
 _atom_site_type_symbol
 _atom_site_label
 _atom_site_symmetry_multiplicity
 _atom_site_fract_x
 _atom_site_fract_y
 _atom_site_fract_z
 _atom_site_occupancy
  Li  Li0  1  0.91607200  0.06635900  0.16080600  1
  Li  Li1  1  0.85874400  0.71661400  0.42162300  1
  Li  Li2  1  0.41984300  0.56586500  0.16260300  1
  Li  Li3  1  0.61732500  0.44876300  0.90370700  1
  Li  Li4  1  0.36724600  0.21042300  0.42261600  1
  Li  Li5  1  0.18088500  0.35788900  0.66649800  1
  Li  Li6  1  0.12792300  0.95827900  0.91967400  1
  Mn  Mn7  1  0.90131800  0.72064700  0.12571900  1
  Mn  Mn8  1  0.85647700  0.36038700  0.38699000  1
  Mn  Mn9  1  0.66737700  0.12932500  0.62884400  1
  Mn  Mn10  1  0.40676500  0.22787300  0.13538000  1
  Mn  Mn11  1  0.61638200  0.77427600  0.86997400  1
  Mn  Mn12  1  0.34914700  0.84829300  0.37682000  1
  Mn  Mn13  1  0.14680000  0.67050800  0.63585200  1
  Mn  Mn14  1  0.10654300  0.28055300  0.88399000  1
  B  B15  1  0.88932200  0.38731300  0.12315400  1
  B  B16  1  0.86243400  0.01256000  0.37704500  1
  B  B17  1  0.64331800  0.47544800  0.62675600  1
  B  B18  1  0.39832500  0.88910200  0.12455000  1
  B  B19  1  0.61007800  0.10535700  0.87364700  1
  B  B20  1  0.35264300  0.51643200  0.37616500  1
  B  B21  1  0.13085400  0.99702500  0.62040600  1
  B  B22  1  0.11218600  0.61074000  0.87473600  1
  O  O23  1  0.99147200  0.13309000  0.36162900  1
  O  O24  1  0.94205300  0.85706300  0.33758100  1
  O  O25  1  0.80997000  0.28050700  0.17179100  1
  O  O26  1  0.98360600  0.86679400  0.60769000  1
  O  O27  1  0.72697100  0.49635600  0.09909300  1
  O  O28  1  0.89054400  0.46530200  0.59655500  1
  O  O29  1  0.64058600  0.88202200  0.09345500  1
  O  O30  1  0.87882100  0.61739300  0.91541300  1
  O  O31  1  0.64078200  0.04184600  0.43257900  1
  O  O32  1  0.77054200  0.99378800  0.88641500  1
  O  O33  1  0.49453800  0.62953800  0.35580900  1
  O  O34  1  0.68803300  0.21468500  0.82094400  1
  O  O35  1  0.44112600  0.36235200  0.34802300  1
  O  O36  1  0.53843600  0.62182500  0.66949500  1
  O  O37  1  0.50522900  0.33544200  0.61045200  1
  O  O38  1  0.31172500  0.77681700  0.16782300  1
  O  O39  1  0.24236500  0.00731600  0.11288700  1
  O  O40  1  0.36412100  0.98066500  0.58059300  1
  O  O41  1  0.13457300  0.38127200  0.09239800  1
  O  O42  1  0.37629400  0.12398300  0.91376000  1
  O  O43  1  0.12192400  0.55275700  0.41831600  1
  O  O44  1  0.25328800  0.47836400  0.85994700  1
  O  O45  1  0.20083200  0.73633700  0.84685600  1
  O  O46  1  0.04645400  0.15365900  0.66596800  1
