# generated using pymatgen
data_Li2CrPO4F
_symmetry_space_group_name_H-M   'P 1'
_cell_length_a   6.64179400
_cell_length_b   10.51695800
_cell_length_c   11.05740900
_cell_angle_alpha   90.00000000
_cell_angle_beta   90.00000000
_cell_angle_gamma   90.00000000
_symmetry_Int_Tables_number   1
_chemical_formula_structural   Li2CrPO4F
_chemical_formula_sum   'Li16 Cr8 P8 O32 F8'
_cell_volume   772.37625693
_cell_formula_units_Z   8
loop_
 _symmetry_equiv_pos_site_id
 _symmetry_equiv_pos_as_xyz
  1  'x, y, z'
loop_
 _atom_site_type_symbol
 _atom_site_label
 _atom_site_symmetry_multiplicity
 _atom_site_fract_x
 _atom_site_fract_y
 _atom_site_fract_z
 _atom_site_occupancy
  Li  Li0  1  0.75000000  0.02776200  0.27387300  1
  Li  Li1  1  0.25000000  0.23068300  0.08236600  1
  Li  Li2  1  0.52636000  0.24324900  0.33694300  1
  Li  Li3  1  0.97364000  0.24324900  0.33694300  1
  Li  Li4  1  0.02636000  0.25675100  0.83694300  1
  Li  Li5  1  0.47364000  0.25675100  0.83694300  1
  Li  Li6  1  0.75000000  0.26931700  0.58236600  1
  Li  Li7  1  0.25000000  0.47223800  0.77387300  1
  Li  Li8  1  0.75000000  0.52776200  0.22612700  1
  Li  Li9  1  0.25000000  0.73068300  0.41763400  1
  Li  Li10  1  0.52636000  0.74324900  0.16305700  1
  Li  Li11  1  0.97364000  0.74324900  0.16305700  1
  Li  Li12  1  0.02636000  0.75675100  0.66305700  1
  Li  Li13  1  0.47364000  0.75675100  0.66305700  1
  Li  Li14  1  0.75000000  0.76931700  0.91763400  1
  Li  Li15  1  0.25000000  0.97223800  0.72612700  1
  Cr  Cr16  1  0.00000000  0.00000000  0.00000000  1
  Cr  Cr17  1  0.50000000  0.00000000  0.00000000  1
  Cr  Cr18  1  0.00000000  0.00000000  0.50000000  1
  Cr  Cr19  1  0.50000000  0.00000000  0.50000000  1
  Cr  Cr20  1  0.00000000  0.50000000  0.50000000  1
  Cr  Cr21  1  0.50000000  0.50000000  0.50000000  1
  Cr  Cr22  1  0.00000000  0.50000000  0.00000000  1
  Cr  Cr23  1  0.50000000  0.50000000  0.00000000  1
  P  P24  1  0.75000000  0.02053800  0.74412400  1
  P  P25  1  0.75000000  0.24442400  0.07845700  1
  P  P26  1  0.25000000  0.25557600  0.57845700  1
  P  P27  1  0.25000000  0.47946200  0.24412400  1
  P  P28  1  0.75000000  0.52053800  0.75587600  1
  P  P29  1  0.75000000  0.74442400  0.42154300  1
  P  P30  1  0.25000000  0.75557600  0.92154300  1
  P  P31  1  0.25000000  0.97946200  0.25587600  1
  O  O32  1  0.25000000  0.03035200  0.12164200  1
  O  O33  1  0.05975600  0.03581000  0.31848900  1
  O  O34  1  0.44024400  0.03581000  0.31848900  1
  O  O35  1  0.25000000  0.10735200  0.55797900  1
  O  O36  1  0.75000000  0.16770000  0.74277500  1
  O  O37  1  0.55755900  0.19253900  0.01520100  1
  O  O38  1  0.94244100  0.19253900  0.01520100  1
  O  O39  1  0.75000000  0.21391600  0.21354900  1
  O  O40  1  0.25000000  0.28608400  0.71354900  1
  O  O41  1  0.05755900  0.30746100  0.51520100  1
  O  O42  1  0.44244100  0.30746100  0.51520100  1
  O  O43  1  0.25000000  0.33230000  0.24277500  1
  O  O44  1  0.75000000  0.39264800  0.05797900  1
  O  O45  1  0.55975600  0.46419000  0.81848900  1
  O  O46  1  0.94024400  0.46419000  0.81848900  1
  O  O47  1  0.75000000  0.46964800  0.62164200  1
  O  O48  1  0.25000000  0.53035200  0.37835800  1
  O  O49  1  0.05975600  0.53581000  0.18151100  1
  O  O50  1  0.44024400  0.53581000  0.18151100  1
  O  O51  1  0.25000000  0.60735200  0.94202100  1
  O  O52  1  0.75000000  0.66770000  0.75722500  1
  O  O53  1  0.55755900  0.69253900  0.48479900  1
  O  O54  1  0.94244100  0.69253900  0.48479900  1
  O  O55  1  0.75000000  0.71391600  0.28645100  1
  O  O56  1  0.25000000  0.78608400  0.78645100  1
  O  O57  1  0.05755900  0.80746100  0.98479900  1
  O  O58  1  0.44244100  0.80746100  0.98479900  1
  O  O59  1  0.25000000  0.83230000  0.25722500  1
  O  O60  1  0.75000000  0.89264800  0.44202100  1
  O  O61  1  0.55975600  0.96419000  0.68151100  1
  O  O62  1  0.94024400  0.96419000  0.68151100  1
  O  O63  1  0.75000000  0.96964800  0.87835800  1
  F  F64  1  0.25000000  0.06938800  0.86947200  1
  F  F65  1  0.75000000  0.15071200  0.44984200  1
  F  F66  1  0.25000000  0.34928800  0.94984200  1
  F  F67  1  0.75000000  0.43061200  0.36947200  1
  F  F68  1  0.25000000  0.56938800  0.63052800  1
  F  F69  1  0.75000000  0.65071200  0.05015800  1
  F  F70  1  0.25000000  0.84928800  0.55015800  1
  F  F71  1  0.75000000  0.93061200  0.13052800  1
