# generated using pymatgen
data_Li5Mn2(PO4)3
_symmetry_space_group_name_H-M   'P 1'
_cell_length_a   8.50624000
_cell_length_b   8.53336638
_cell_length_c   9.40693249
_cell_angle_alpha   63.17112291
_cell_angle_beta   63.54513925
_cell_angle_gamma   60.93637859
_symmetry_Int_Tables_number   1
_chemical_formula_structural   Li5Mn2(PO4)3
_chemical_formula_sum   'Li10 Mn4 P6 O24'
_cell_volume   509.69746511
_cell_formula_units_Z   2
loop_
 _symmetry_equiv_pos_site_id
 _symmetry_equiv_pos_as_xyz
  1  'x, y, z'
loop_
 _atom_site_type_symbol
 _atom_site_label
 _atom_site_symmetry_multiplicity
 _atom_site_fract_x
 _atom_site_fract_y
 _atom_site_fract_z
 _atom_site_occupancy
  Li  Li0  1  0.97579200  0.23211900  0.17304300  1
  Li  Li1  1  0.20877900  0.73824100  0.07776200  1
  Li  Li2  1  0.65436300  0.92310000  0.15463700  1
  Li  Li3  1  0.24094600  0.54511000  0.36634500  1
  Li  Li4  1  0.68439700  0.35300100  0.37806400  1
  Li  Li5  1  0.31560300  0.64699900  0.62193600  1
  Li  Li6  1  0.75905400  0.45489000  0.63365500  1
  Li  Li7  1  0.34563700  0.07690000  0.84536300  1
  Li  Li8  1  0.79122100  0.26175900  0.92223800  1
  Li  Li9  1  0.02420800  0.76788100  0.82695700  1
  Mn  Mn10  1  0.14051800  0.14239800  0.55124100  1
  Mn  Mn11  1  0.35412100  0.34159700  0.96430600  1
  Mn  Mn12  1  0.64587900  0.65840300  0.03569400  1
  Mn  Mn13  1  0.85948200  0.85760200  0.44875900  1
  P  P14  1  0.05114000  0.45546100  0.74588700  1
  P  P15  1  0.54885800  0.24882600  0.25770600  1
  P  P16  1  0.26121600  0.94237600  0.23753900  1
  P  P17  1  0.73878400  0.05762400  0.76246100  1
  P  P18  1  0.45114200  0.75117400  0.74229400  1
  P  P19  1  0.94886000  0.54453900  0.25411300  1
  O  O20  1  0.24779800  0.11104500  0.07080100  1
  O  O21  1  0.15770800  0.02964900  0.37900200  1
  O  O22  1  0.94753100  0.41055300  0.43339100  1
  O  O23  1  0.15320600  0.51946500  0.13357300  1
  O  O24  1  0.14928200  0.24992500  0.74327800  1
  O  O25  1  0.57433400  0.21041500  0.09960500  1
  O  O26  1  0.15249400  0.82774100  0.25221500  1
  O  O27  1  0.39392200  0.19239000  0.40585300  1
  O  O28  1  0.15511300  0.51324900  0.80653100  1
  O  O29  1  0.50176500  0.46221100  0.22680900  1
  O  O30  1  0.74723800  0.14904000  0.29057300  1
  O  O31  1  0.46677000  0.81078400  0.23362200  1
  O  O32  1  0.53323000  0.18921600  0.76637800  1
  O  O33  1  0.25276200  0.85096000  0.70942700  1
  O  O34  1  0.49823500  0.53778900  0.77319100  1
  O  O35  1  0.84488700  0.48675100  0.19346900  1
  O  O36  1  0.60607800  0.80761000  0.59414700  1
  O  O37  1  0.84750600  0.17225900  0.74778500  1
  O  O38  1  0.42566600  0.78958500  0.90039500  1
  O  O39  1  0.85071800  0.75007500  0.25672200  1
  O  O40  1  0.84679400  0.48053500  0.86642700  1
  O  O41  1  0.05246900  0.58944700  0.56660900  1
  O  O42  1  0.84229200  0.97035100  0.62099800  1
  O  O43  1  0.75220200  0.88895500  0.92919900  1
