# generated using pymatgen
data_Li4Cr2(PO4)3
_symmetry_space_group_name_H-M   'P 1'
_cell_length_a   8.83259100
_cell_length_b   9.03827000
_cell_length_c   15.04898276
_cell_angle_alpha   53.85708426
_cell_angle_beta   90.00000000
_cell_angle_gamma   90.00000000
_symmetry_Int_Tables_number   1
_chemical_formula_structural   Li4Cr2(PO4)3
_chemical_formula_sum   'Li16 Cr8 P12 O48'
_cell_volume   970.17281939
_cell_formula_units_Z   4
loop_
 _symmetry_equiv_pos_site_id
 _symmetry_equiv_pos_as_xyz
  1  'x, y, z'
loop_
 _atom_site_type_symbol
 _atom_site_label
 _atom_site_symmetry_multiplicity
 _atom_site_fract_x
 _atom_site_fract_y
 _atom_site_fract_z
 _atom_site_occupancy
  Li  Li0  1  0.41404800  0.17725100  0.78398300  1
  Li  Li1  1  0.06520600  0.73636100  0.21203900  1
  Li  Li2  1  0.76306400  0.12293100  0.67829200  1
  Li  Li3  1  0.74159400  0.46088200  0.32409600  1
  Li  Li4  1  0.24159400  0.53911800  0.17590400  1
  Li  Li5  1  0.26306400  0.87706900  0.82170800  1
  Li  Li6  1  0.56520600  0.26363900  0.28796100  1
  Li  Li7  1  0.91404800  0.82274900  0.71601700  1
  Li  Li8  1  0.08595200  0.17725100  0.28398300  1
  Li  Li9  1  0.43479400  0.73636100  0.71203900  1
  Li  Li10  1  0.73693600  0.12293100  0.17829200  1
  Li  Li11  1  0.75840600  0.46088200  0.82409600  1
  Li  Li12  1  0.25840600  0.53911800  0.67590400  1
  Li  Li13  1  0.23693600  0.87706900  0.32170800  1
  Li  Li14  1  0.93479400  0.26363900  0.78796100  1
  Li  Li15  1  0.58595200  0.82274900  0.21601700  1
  Cr  Cr16  1  0.04955200  0.35877900  0.39034100  1
  Cr  Cr17  1  0.95396900  0.86107100  0.89147300  1
  Cr  Cr18  1  0.54955200  0.64122100  0.10965900  1
  Cr  Cr19  1  0.45396900  0.13892900  0.60852700  1
  Cr  Cr20  1  0.54603100  0.86107100  0.39147300  1
  Cr  Cr21  1  0.45044800  0.35877900  0.89034100  1
  Cr  Cr22  1  0.04603100  0.13892900  0.10852700  1
  Cr  Cr23  1  0.95044800  0.64122100  0.60965900  1
  P  P24  1  0.24395200  0.94825900  0.00060500  1
  P  P25  1  0.39759600  0.54615000  0.35188800  1
  P  P26  1  0.10962000  0.24010800  0.65366900  1
  P  P27  1  0.60962000  0.75989200  0.84633100  1
  P  P28  1  0.89759600  0.45385000  0.14811200  1
  P  P29  1  0.74395200  0.05174100  0.49939500  1
  P  P30  1  0.25604800  0.94825900  0.50060500  1
  P  P31  1  0.10240400  0.54615000  0.85188800  1
  P  P32  1  0.39038000  0.24010800  0.15366900  1
  P  P33  1  0.89038000  0.75989200  0.34633100  1
  P  P34  1  0.60240400  0.45385000  0.64811200  1
  P  P35  1  0.75604800  0.05174100  0.99939500  1
  O  O36  1  0.86404500  0.02914900  0.92603200  1
  O  O37  1  0.66706900  0.87924200  0.08258000  1
  O  O38  1  0.89114400  0.61354000  0.32409500  1
  O  O39  1  0.58031100  0.26316200  0.66766200  1
  O  O40  1  0.34250000  0.77909000  0.08081400  1
  O  O41  1  0.23742700  0.55101100  0.30738100  1
  O  O42  1  0.41399400  0.38265800  0.47144600  1
  O  O43  1  0.26824400  0.14151500  0.69155700  1
  O  O44  1  0.15414000  0.89983300  0.93078000  1
  O  O45  1  0.07325300  0.31013500  0.53744000  1
  O  O46  1  0.98063600  0.09928300  0.73150200  1
  O  O47  1  0.52590500  0.54169800  0.28082100  1
  O  O48  1  0.02590500  0.45830200  0.21917900  1
  O  O49  1  0.48063600  0.90071700  0.76849800  1
  O  O50  1  0.57325300  0.68986500  0.96256000  1
  O  O51  1  0.91399400  0.61734200  0.02855400  1
  O  O52  1  0.65414000  0.10016700  0.56922000  1
  O  O53  1  0.76824400  0.85848500  0.80844300  1
  O  O54  1  0.73742700  0.44898900  0.19261900  1
  O  O55  1  0.84250000  0.22091000  0.41918600  1
  O  O56  1  0.39114400  0.38646000  0.17590500  1
  O  O57  1  0.08031100  0.73683800  0.83233800  1
  O  O58  1  0.16706900  0.12075800  0.41742000  1
  O  O59  1  0.36404500  0.97085100  0.57396800  1
  O  O60  1  0.63595500  0.02914900  0.42603200  1
  O  O61  1  0.83293100  0.87924200  0.58258000  1
  O  O62  1  0.91968900  0.26316200  0.16766200  1
  O  O63  1  0.60885600  0.61354000  0.82409500  1
  O  O64  1  0.15750000  0.77909000  0.58081400  1
  O  O65  1  0.26257300  0.55101100  0.80738100  1
  O  O66  1  0.23175600  0.14151500  0.19155700  1
  O  O67  1  0.34586000  0.89983300  0.43078000  1
  O  O68  1  0.08600600  0.38265800  0.97144600  1
  O  O69  1  0.42674700  0.31013500  0.03744000  1
  O  O70  1  0.51936400  0.09928300  0.23150200  1
  O  O71  1  0.97409500  0.54169800  0.78082100  1
  O  O72  1  0.47409500  0.45830200  0.71917900  1
  O  O73  1  0.01936400  0.90071700  0.26849800  1
  O  O74  1  0.92674700  0.68986500  0.46256000  1
  O  O75  1  0.84586000  0.10016700  0.06922000  1
  O  O76  1  0.73175600  0.85848500  0.30844300  1
  O  O77  1  0.58600600  0.61734200  0.52855400  1
  O  O78  1  0.76257300  0.44898900  0.69261900  1
  O  O79  1  0.65750000  0.22091000  0.91918600  1
  O  O80  1  0.41968900  0.73683800  0.33233800  1
  O  O81  1  0.10885600  0.38646000  0.67590500  1
  O  O82  1  0.33293100  0.12075800  0.91742000  1
  O  O83  1  0.13595500  0.97085100  0.07396800  1
