# generated using pymatgen
data_Li3Ni2(CO3)4
_symmetry_space_group_name_H-M   'P 1'
_cell_length_a   9.47496400
_cell_length_b   6.88485500
_cell_length_c   8.37218803
_cell_angle_alpha   70.06498515
_cell_angle_beta   90.00000000
_cell_angle_gamma   90.00000000
_symmetry_Int_Tables_number   1
_chemical_formula_structural   Li3Ni2(CO3)4
_chemical_formula_sum   'Li6 Ni4 C8 O24'
_cell_volume   513.42395119
_cell_formula_units_Z   2
loop_
 _symmetry_equiv_pos_site_id
 _symmetry_equiv_pos_as_xyz
  1  'x, y, z'
loop_
 _atom_site_type_symbol
 _atom_site_label
 _atom_site_symmetry_multiplicity
 _atom_site_fract_x
 _atom_site_fract_y
 _atom_site_fract_z
 _atom_site_occupancy
  Li  Li0  1  0.19517300  0.30113000  0.83152600  1
  Li  Li1  1  0.88610000  0.25218400  0.09899000  1
  Li  Li2  1  0.38610000  0.74781600  0.90101000  1
  Li  Li3  1  0.69517300  0.69887000  0.16847400  1
  Li  Li4  1  0.61386500  0.75343600  0.59758700  1
  Li  Li5  1  0.11386500  0.24656400  0.40241300  1
  Ni  Ni6  1  0.38546200  0.29026800  0.20083300  1
  Ni  Ni7  1  0.88546200  0.70973200  0.79916700  1
  Ni  Ni8  1  0.11617000  0.78783600  0.69958700  1
  Ni  Ni9  1  0.61617000  0.21216400  0.30041300  1
  C  C10  1  0.60604400  0.49380100  0.97401700  1
  C  C11  1  0.10604400  0.50619900  0.02598300  1
  C  C12  1  0.49026600  0.51734300  0.39408100  1
  C  C13  1  0.99026600  0.48265700  0.60591900  1
  C  C14  1  0.00449900  0.02092300  0.88791200  1
  C  C15  1  0.50449900  0.97907700  0.11208800  1
  C  C16  1  0.89242200  0.99226200  0.47937500  1
  C  C17  1  0.39242200  0.00773800  0.52062500  1
  O  O18  1  0.15426000  0.37842100  0.16114300  1
  O  O19  1  0.47115500  0.46559600  0.99488200  1
  O  O20  1  0.69411900  0.39903400  0.09710800  1
  O  O21  1  0.19411900  0.60096600  0.90289200  1
  O  O22  1  0.97115500  0.53440400  0.00511800  1
  O  O23  1  0.65426000  0.62157900  0.83885700  1
  O  O24  1  0.98233300  0.36960700  0.51721100  1
  O  O25  1  0.61571000  0.44038700  0.37525000  1
  O  O26  1  0.38091800  0.48140300  0.31501200  1
  O  O27  1  0.88091800  0.51859700  0.68498800  1
  O  O28  1  0.11571000  0.55961300  0.62475000  1
  O  O29  1  0.51764100  0.84474000  0.04050100  1
  O  O30  1  0.48233300  0.63039300  0.48278900  1
  O  O31  1  0.88955800  0.91490200  0.90169700  1
  O  O32  1  0.11339100  0.99802900  0.79848300  1
  O  O33  1  0.61339100  0.00197100  0.20151700  1
  O  O34  1  0.38955800  0.08509800  0.09830300  1
  O  O35  1  0.01764100  0.15526000  0.95949900  1
  O  O36  1  0.34492800  0.88172400  0.65896800  1
  O  O37  1  0.02842300  0.96237700  0.49633500  1
  O  O38  1  0.80636900  0.89530200  0.60012600  1
  O  O39  1  0.30636900  0.10469800  0.39987400  1
  O  O40  1  0.52842300  0.03762300  0.50366500  1
  O  O41  1  0.84492800  0.11827600  0.34103200  1
