# generated using pymatgen
data_Li4MnCrO6
_symmetry_space_group_name_H-M   'P 1'
_cell_length_a   5.00526528
_cell_length_b   5.00526528
_cell_length_c   19.29164444
_cell_angle_alpha   87.17427598
_cell_angle_beta   87.17427598
_cell_angle_gamma   119.47279006
_symmetry_Int_Tables_number   1
_chemical_formula_structural   Li4MnCrO6
_chemical_formula_sum   'Li16 Mn4 Cr4 O24'
_cell_volume   418.74448928
_cell_formula_units_Z   4
loop_
 _symmetry_equiv_pos_site_id
 _symmetry_equiv_pos_as_xyz
  1  'x, y, z'
loop_
 _atom_site_type_symbol
 _atom_site_label
 _atom_site_symmetry_multiplicity
 _atom_site_fract_x
 _atom_site_fract_y
 _atom_site_fract_z
 _atom_site_occupancy
  Li  Li0  1  0.49960500  0.74969700  0.12498500  1
  Li  Li1  1  0.37664000  0.62336000  0.50000000  1
  Li  Li2  1  0.40866900  0.33822600  0.37495600  1
  Li  Li3  1  0.00104200  0.25046300  0.62482500  1
  Li  Li4  1  0.87232800  0.12767200  0.00000000  1
  Li  Li5  1  0.74953700  0.99895800  0.37517500  1
  Li  Li6  1  0.90271500  0.83049600  0.87472600  1
  Li  Li7  1  0.25030300  0.50039500  0.87501500  1
  Li  Li8  1  0.33585600  0.90926700  0.62460500  1
  Li  Li9  1  0.16950400  0.09728500  0.12527400  1
  Li  Li10  1  0.83075600  0.40293200  0.12468900  1
  Li  Li11  1  0.66177400  0.59133100  0.62504400  1
  Li  Li12  1  0.09073300  0.66414400  0.37539500  1
  Li  Li13  1  0.12788600  0.37291700  0.25005200  1
  Li  Li14  1  0.59706800  0.16924400  0.87531100  1
  Li  Li15  1  0.62708300  0.87211400  0.74994800  1
  Mn  Mn16  1  0.45765400  0.04262400  0.25006500  1
  Mn  Mn17  1  0.95737600  0.54234600  0.74993500  1
  Mn  Mn18  1  0.70752100  0.29247900  0.50000000  1
  Mn  Mn19  1  0.54241000  0.45759000  0.00000000  1
  Cr  Cr20  1  0.79645100  0.70457200  0.24999500  1
  Cr  Cr21  1  0.29542800  0.20354900  0.75000500  1
  Cr  Cr22  1  0.20400600  0.79599400  0.00000000  1
  Cr  Cr23  1  0.04534200  0.95465800  0.50000000  1
  O  O24  1  0.46381600  0.71490700  0.30704800  1
  O  O25  1  0.78498000  0.03502400  0.19309700  1
  O  O26  1  0.96497600  0.21502000  0.80690300  1
  O  O27  1  0.36055200  0.25245600  0.55655400  1
  O  O28  1  0.49719300  0.38905800  0.19337500  1
  O  O29  1  0.28509300  0.53618400  0.69295200  1
  O  O30  1  0.39350000  0.00461300  0.44431600  1
  O  O31  1  0.85719100  0.74544500  0.05577800  1
  O  O32  1  0.99731000  0.88869400  0.69318700  1
  O  O33  1  0.74754400  0.63944800  0.44344600  1
  O  O34  1  0.74516800  0.35719200  0.30570700  1
  O  O35  1  0.88898200  0.49712800  0.94340000  1
  O  O36  1  0.11130600  0.00269000  0.30681300  1
  O  O37  1  0.25455500  0.14280900  0.94422200  1
  O  O38  1  0.24549400  0.85692600  0.80576900  1
  O  O39  1  0.99538700  0.60650000  0.55568400  1
  O  O40  1  0.14307400  0.75450600  0.19423100  1
  O  O41  1  0.61094200  0.50280700  0.80662500  1
  O  O42  1  0.71402000  0.96486700  0.55698700  1
  O  O43  1  0.50287200  0.11101800  0.05660000  1
  O  O44  1  0.64280800  0.25483200  0.69429300  1
  O  O45  1  0.03513300  0.28598000  0.44301300  1
  O  O46  1  0.21474700  0.46433000  0.05693500  1
  O  O47  1  0.53567000  0.78525300  0.94306500  1
