# generated using pymatgen
data_Li7Co5O12
_symmetry_space_group_name_H-M   'P 1'
_cell_length_a   4.90350971
_cell_length_b   4.90350971
_cell_length_c   9.60966625
_cell_angle_alpha   84.99111228
_cell_angle_beta   84.99111228
_cell_angle_gamma   119.92526176
_symmetry_Int_Tables_number   1
_chemical_formula_structural   Li7Co5O12
_chemical_formula_sum   'Li7 Co5 O12'
_cell_volume   197.18352194
_cell_formula_units_Z   1
loop_
 _symmetry_equiv_pos_site_id
 _symmetry_equiv_pos_as_xyz
  1  'x, y, z'
loop_
 _atom_site_type_symbol
 _atom_site_label
 _atom_site_symmetry_multiplicity
 _atom_site_fract_x
 _atom_site_fract_y
 _atom_site_fract_z
 _atom_site_occupancy
  Li  Li0  1  0.75612400  0.75612400  0.75080400  1
  Li  Li1  1  0.40881200  0.08442200  0.75125500  1
  Li  Li2  1  0.59118800  0.91557800  0.24874500  1
  Li  Li3  1  0.24387600  0.24387600  0.24919600  1
  Li  Li4  1  0.91557800  0.59118800  0.24874500  1
  Li  Li5  1  0.08442200  0.40881200  0.75125500  1
  Li  Li6  1  0.00000000  0.00000000  0.00000000  1
  Co  Co7  1  0.66560600  0.33439400  0.00000000  1
  Co  Co8  1  0.50000000  0.50000000  0.50000000  1
  Co  Co9  1  0.16388700  0.83611300  0.50000000  1
  Co  Co10  1  0.33439400  0.66560600  0.00000000  1
  Co  Co11  1  0.83611300  0.16388700  0.50000000  1
  O  O12  1  0.53424300  0.20680100  0.39208600  1
  O  O13  1  0.32643200  0.96653800  0.11184200  1
  O  O14  1  0.60514300  0.60514300  0.11143400  1
  O  O15  1  0.03346200  0.67356800  0.88815800  1
  O  O16  1  0.79319900  0.46575700  0.60791400  1
  O  O17  1  0.39485700  0.39485700  0.88856600  1
  O  O18  1  0.12938000  0.12938000  0.60985100  1
  O  O19  1  0.67356800  0.03346200  0.88815800  1
  O  O20  1  0.46575700  0.79319900  0.60791400  1
  O  O21  1  0.87062000  0.87062000  0.39014900  1
  O  O22  1  0.20680100  0.53424300  0.39208600  1
  O  O23  1  0.96653800  0.32643200  0.11184200  1
