# generated using pymatgen
data_Li2TiCo3O8
_symmetry_space_group_name_H-M   'P 1'
_cell_length_a   5.72902700
_cell_length_b   5.72902700
_cell_length_c   5.72902703
_cell_angle_alpha   60.34763550
_cell_angle_beta   60.34763550
_cell_angle_gamma   60.34763763
_symmetry_Int_Tables_number   1
_chemical_formula_structural   Li2TiCo3O8
_chemical_formula_sum   'Li2 Ti1 Co3 O8'
_cell_volume   134.00767826
_cell_formula_units_Z   1
loop_
 _symmetry_equiv_pos_site_id
 _symmetry_equiv_pos_as_xyz
  1  'x, y, z'
loop_
 _atom_site_type_symbol
 _atom_site_label
 _atom_site_symmetry_multiplicity
 _atom_site_fract_x
 _atom_site_fract_y
 _atom_site_fract_z
 _atom_site_occupancy
  Li  Li0  1  0.87665800  0.87665800  0.87665800  1
  Li  Li1  1  0.12334200  0.12334200  0.12334200  1
  Ti  Ti2  1  0.50000000  0.50000000  0.50000000  1
  Co  Co3  1  0.50000000  0.00000000  0.50000000  1
  Co  Co4  1  0.00000000  0.50000000  0.50000000  1
  Co  Co5  1  0.50000000  0.50000000  0.00000000  1
  O  O6  1  0.28769100  0.74186100  0.74186100  1
  O  O7  1  0.74186100  0.28769100  0.74186100  1
  O  O8  1  0.26369800  0.26369800  0.26369800  1
  O  O9  1  0.74186100  0.74186100  0.28769100  1
  O  O10  1  0.25813900  0.25813900  0.71230900  1
  O  O11  1  0.73630200  0.73630200  0.73630200  1
  O  O12  1  0.25813900  0.71230900  0.25813900  1
  O  O13  1  0.71230900  0.25813900  0.25813900  1
