# generated using pymatgen
data_Na5LiMn2P2(CO7)2
_symmetry_space_group_name_H-M   'P 1'
_cell_length_a   6.76709300
_cell_length_b   8.98679040
_cell_length_c   10.37496038
_cell_angle_alpha   90.03479200
_cell_angle_beta   90.30921765
_cell_angle_gamma   90.60945083
_symmetry_Int_Tables_number   1
_chemical_formula_structural   Na5LiMn2P2(CO7)2
_chemical_formula_sum   'Na10 Li2 Mn4 P4 C4 O28'
_cell_volume   630.90245091
_cell_formula_units_Z   2
loop_
 _symmetry_equiv_pos_site_id
 _symmetry_equiv_pos_as_xyz
  1  'x, y, z'
loop_
 _atom_site_type_symbol
 _atom_site_label
 _atom_site_symmetry_multiplicity
 _atom_site_fract_x
 _atom_site_fract_y
 _atom_site_fract_z
 _atom_site_occupancy
  Na  Na0  1  0.24554400  0.91669400  0.88056100  1
  Na  Na1  1  0.24786200  0.91717600  0.37926600  1
  Na  Na2  1  0.00120100  0.74190200  0.62343100  1
  Na  Na3  1  0.49874500  0.74104300  0.62330000  1
  Na  Na4  1  0.49837200  0.74177100  0.12388400  1
  Na  Na5  1  0.50162800  0.25822900  0.87611600  1
  Na  Na6  1  0.50125500  0.25895700  0.37670000  1
  Na  Na7  1  0.99879900  0.25809800  0.37656900  1
  Na  Na8  1  0.75213800  0.08282400  0.62073400  1
  Na  Na9  1  0.75445600  0.08330600  0.11943900  1
  Li  Li10  1  0.00947100  0.73144600  0.12062400  1
  Li  Li11  1  0.99052900  0.26855400  0.87937600  1
  Mn  Mn12  1  0.75174300  0.63862700  0.89028200  1
  Mn  Mn13  1  0.75090000  0.63832000  0.38845100  1
  Mn  Mn14  1  0.24910000  0.36168000  0.61154900  1
  Mn  Mn15  1  0.24825700  0.36137300  0.10971800  1
  P  P16  1  0.24595900  0.58584000  0.85211700  1
  P  P17  1  0.24688000  0.59004200  0.34950400  1
  P  P18  1  0.75312000  0.40995800  0.65049600  1
  P  P19  1  0.75404100  0.41416000  0.14788300  1
  C  C20  1  0.75691500  0.94362900  0.86889100  1
  C  C21  1  0.75149200  0.93927600  0.36678000  1
  C  C22  1  0.24850800  0.06072400  0.63322000  1
  C  C23  1  0.24308500  0.05637100  0.13110900  1
  O  O24  1  0.25178400  0.91693200  0.64413600  1
  O  O25  1  0.23280900  0.91185500  0.14074900  1
  O  O26  1  0.75161700  0.87983200  0.98136600  1
  O  O27  1  0.75123800  0.87765400  0.48044900  1
  O  O28  1  0.75121300  0.86050500  0.76566400  1
  O  O29  1  0.75474200  0.85512800  0.26437000  1
  O  O30  1  0.06754400  0.68104500  0.89646700  1
  O  O31  1  0.43483300  0.67323900  0.89517300  1
  O  O32  1  0.06628500  0.68111200  0.39509100  1
  O  O33  1  0.43428700  0.68171000  0.38868700  1
  O  O34  1  0.24589100  0.57274200  0.70200600  1
  O  O35  1  0.74967400  0.56802400  0.59089800  1
  O  O36  1  0.23706200  0.57591800  0.19879300  1
  O  O37  1  0.76433600  0.57464200  0.09163700  1
  O  O38  1  0.23566400  0.42535800  0.90836300  1
  O  O39  1  0.76293800  0.42408200  0.80120700  1
  O  O40  1  0.25032600  0.43197600  0.40910200  1
  O  O41  1  0.75410900  0.42725800  0.29799400  1
  O  O42  1  0.56571300  0.31829000  0.61131300  1
  O  O43  1  0.93371500  0.31888800  0.60490900  1
  O  O44  1  0.56516700  0.32676100  0.10482700  1
  O  O45  1  0.93245600  0.31895500  0.10353300  1
  O  O46  1  0.24525800  0.14487200  0.73563000  1
  O  O47  1  0.24878700  0.13949500  0.23433600  1
  O  O48  1  0.24876200  0.12234600  0.51955100  1
  O  O49  1  0.24838300  0.12016800  0.01863400  1
  O  O50  1  0.76719100  0.08814500  0.85925100  1
  O  O51  1  0.74821600  0.08306800  0.35586400  1
