# generated using pymatgen
data_Li3Fe2(PO4)3
_symmetry_space_group_name_H-M   'P 1'
_cell_length_a   9.78202872
_cell_length_b   9.78202872
_cell_length_c   9.78082705
_cell_angle_alpha   86.55111142
_cell_angle_beta   86.55111142
_cell_angle_gamma   86.45219921
_symmetry_Int_Tables_number   1
_chemical_formula_structural   Li3Fe2(PO4)3
_chemical_formula_sum   'Li12 Fe8 P12 O48'
_cell_volume   930.92596506
_cell_formula_units_Z   4
loop_
 _symmetry_equiv_pos_site_id
 _symmetry_equiv_pos_as_xyz
  1  'x, y, z'
loop_
 _atom_site_type_symbol
 _atom_site_label
 _atom_site_symmetry_multiplicity
 _atom_site_fract_x
 _atom_site_fract_y
 _atom_site_fract_z
 _atom_site_occupancy
  Li  Li0  1  0.72933300  0.53994600  0.89934900  1
  Li  Li1  1  0.98416100  0.32415300  0.02929200  1
  Li  Li2  1  0.46005400  0.27066700  0.10065100  1
  Li  Li3  1  0.67584700  0.01583900  0.97070800  1
  Li  Li4  1  0.46799000  0.01531700  0.24316700  1
  Li  Li5  1  0.98468300  0.53201000  0.75683300  1
  Li  Li6  1  0.76833600  0.84274000  0.23283400  1
  Li  Li7  1  0.15726000  0.23166400  0.76716600  1
  Li  Li8  1  0.33754500  0.99953800  0.50742400  1
  Li  Li9  1  0.50004600  0.74522500  0.40293800  1
  Li  Li10  1  0.00046200  0.66245500  0.49257600  1
  Li  Li11  1  0.25477500  0.49995400  0.59706200  1
  Fe  Fe12  1  0.75012100  0.47183100  0.27894200  1
  Fe  Fe13  1  0.47906200  0.75515800  0.77650400  1
  Fe  Fe14  1  0.02966200  0.97033800  0.00000000  1
  Fe  Fe15  1  0.25227500  0.74772500  0.00000000  1
  Fe  Fe16  1  0.75080000  0.24920000  0.50000000  1
  Fe  Fe17  1  0.52816900  0.24987900  0.72105800  1
  Fe  Fe18  1  0.97325500  0.02674500  0.50000000  1
  Fe  Fe19  1  0.24484200  0.52093800  0.22349600  1
  P  P20  1  0.32754600  0.45009200  0.90096300  1
  P  P21  1  0.84807400  0.17332200  0.80182700  1
  P  P22  1  0.34848300  0.04958100  0.92240500  1
  P  P23  1  0.82667800  0.15192600  0.19817300  1
  P  P24  1  0.45039400  0.32096100  0.40294900  1
  P  P25  1  0.04905000  0.34665700  0.42687500  1
  P  P26  1  0.95041900  0.65151700  0.07759500  1
  P  P27  1  0.54990800  0.67245400  0.09903700  1
  P  P28  1  0.17982100  0.83972300  0.30058700  1
  P  P29  1  0.65334300  0.95095000  0.57312500  1
  P  P30  1  0.16027700  0.82017900  0.69941300  1
  P  P31  1  0.67903900  0.54960600  0.59705100  1
  O  O32  1  0.21130400  0.40535200  0.81886600  1
  O  O33  1  0.47000300  0.38235200  0.85694800  1
  O  O34  1  0.93318300  0.28752600  0.84616600  1
  O  O35  1  0.69060000  0.18994600  0.83824800  1
  O  O36  1  0.31085600  0.41267600  0.05812100  1
  O  O37  1  0.39052700  0.11739900  0.77903000  1
  O  O38  1  0.89053500  0.03112400  0.87172200  1
  O  O39  1  0.81005400  0.30940000  0.16175200  1
  O  O40  1  0.19075900  0.08512700  0.93722300  1
  O  O41  1  0.38173300  0.46151900  0.35331300  1
  O  O42  1  0.11008700  0.39182800  0.28232000  1
  O  O43  1  0.43343700  0.09480800  0.03622100  1
  O  O44  1  0.96887600  0.10946500  0.12827800  1
  O  O45  1  0.12503900  0.82680300  0.85937600  1
  O  O46  1  0.37915200  0.88910500  0.91913200  1
  O  O47  1  0.88732300  0.37720300  0.41975900  1
  O  O48  1  0.61136200  0.33298300  0.37365000  1
  O  O49  1  0.71247400  0.06681700  0.15383400  1
  O  O50  1  0.41226700  0.20014400  0.32438600  1
  O  O51  1  0.09139700  0.43476600  0.53947800  1
  O  O52  1  0.83481900  0.12414200  0.35789600  1
  O  O53  1  0.66701700  0.38863800  0.62635000  1
  O  O54  1  0.91487300  0.80924100  0.06277700  1
  O  O55  1  0.58732400  0.68914400  0.94187900  1
  O  O56  1  0.41178200  0.31038900  0.56032700  1
  O  O57  1  0.08413000  0.19175400  0.45508500  1
  O  O58  1  0.33397100  0.61005400  0.87146500  1
  O  O59  1  0.17319700  0.87496100  0.14062400  1
  O  O60  1  0.90519200  0.56656300  0.96377900  1
  O  O61  1  0.59464800  0.78869600  0.18113400  1
  O  O62  1  0.30771700  0.90131500  0.34824200  1
  O  O63  1  0.11089500  0.62084800  0.08086800  1
  O  O64  1  0.38994600  0.66602900  0.12853500  1
  O  O65  1  0.62279700  0.11267700  0.58024100  1
  O  O66  1  0.87585800  0.16518100  0.64210400  1
  O  O67  1  0.04068300  0.89375500  0.36777100  1
  O  O68  1  0.56523400  0.90860300  0.46052200  1
  O  O69  1  0.61764800  0.52999700  0.14305200  1
  O  O70  1  0.88260100  0.60947300  0.22097000  1
  O  O71  1  0.80824600  0.91587000  0.54491500  1
  O  O72  1  0.18266600  0.68170500  0.33540800  1
  O  O73  1  0.10624500  0.95931700  0.63222900  1
  O  O74  1  0.60817200  0.88991300  0.71768000  1
  O  O75  1  0.68961100  0.58821800  0.43967300  1
  O  O76  1  0.31829500  0.81733400  0.66459200  1
  O  O77  1  0.09868500  0.69228300  0.65175800  1
  O  O78  1  0.53848100  0.61826700  0.64668700  1
  O  O79  1  0.79985600  0.58773300  0.67561400  1
