# generated using pymatgen
data_Li6V9(PO4)8
_symmetry_space_group_name_H-M   'P 1'
_cell_length_a   8.85687400
_cell_length_b   8.97440756
_cell_length_c   9.06956319
_cell_angle_alpha   100.01094518
_cell_angle_beta   109.99164848
_cell_angle_gamma   101.37248112
_symmetry_Int_Tables_number   1
_chemical_formula_structural   Li6V9(PO4)8
_chemical_formula_sum   'Li6 V9 P8 O32'
_cell_volume   640.97996685
_cell_formula_units_Z   1
loop_
 _symmetry_equiv_pos_site_id
 _symmetry_equiv_pos_as_xyz
  1  'x, y, z'
loop_
 _atom_site_type_symbol
 _atom_site_label
 _atom_site_symmetry_multiplicity
 _atom_site_fract_x
 _atom_site_fract_y
 _atom_site_fract_z
 _atom_site_occupancy
  Li  Li0  1  0.87379000  0.63634300  0.99227300  1
  Li  Li1  1  0.76705000  0.03094100  0.27708800  1
  Li  Li2  1  0.30414300  0.29937200  0.34242800  1
  Li  Li3  1  0.69585700  0.70062800  0.65757200  1
  Li  Li4  1  0.23295000  0.96905900  0.72291200  1
  Li  Li5  1  0.12621000  0.36365700  0.00772700  1
  V  V6  1  0.50000000  0.50000000  0.00000000  1
  V  V7  1  0.29563800  0.79252600  0.06029000  1
  V  V8  1  0.87720300  0.70602600  0.43660900  1
  V  V9  1  0.00000000  0.00000000  0.00000000  1
  V  V10  1  0.70194700  0.32231800  0.45096000  1
  V  V11  1  0.50000000  0.00000000  0.50000000  1
  V  V12  1  0.29805300  0.67768200  0.54904000  1
  V  V13  1  0.12279700  0.29397400  0.56339100  1
  V  V14  1  0.70436200  0.20747400  0.93971000  1
  P  P15  1  0.97524400  0.39542900  0.27834000  1
  P  P16  1  0.39273600  0.15581000  0.09126100  1
  P  P17  1  0.48095300  0.66049200  0.29122800  1
  P  P18  1  0.11822300  0.94835700  0.34140400  1
  P  P19  1  0.88177700  0.05164300  0.65859600  1
  P  P20  1  0.51904700  0.33950800  0.70877200  1
  P  P21  1  0.60726400  0.84419000  0.90873900  1
  P  P22  1  0.02475600  0.60457100  0.72166000  1
  O  O23  1  0.96037000  0.30040200  0.11260400  1
  O  O24  1  0.68753400  0.00739100  0.03569800  1
  O  O25  1  0.50854200  0.26956500  0.03774700  1
  O  O26  1  0.93725700  0.89036400  0.32872300  1
  O  O27  1  0.91379100  0.54096400  0.25898400  1
  O  O28  1  0.62608500  0.60467800  0.26245600  1
  O  O29  1  0.32268200  0.56801500  0.13037100  1
  O  O30  1  0.24108500  0.21682000  0.09972800  1
  O  O31  1  0.49997000  0.83839000  0.29571100  1
  O  O32  1  0.88259700  0.28184100  0.35435700  1
  O  O33  1  0.12574000  0.88708200  0.17221300  1
  O  O34  1  0.49535800  0.14158400  0.26387400  1
  O  O35  1  0.82481700  0.87007300  0.60757000  1
  O  O36  1  0.83733300  0.55554600  0.59651600  1
  O  O37  1  0.47361900  0.63365000  0.45049300  1
  O  O38  1  0.24546300  0.88597100  0.46733000  1
  O  O39  1  0.75453700  0.11402900  0.53267000  1
  O  O40  1  0.52638100  0.36635000  0.54950700  1
  O  O41  1  0.16266700  0.44445400  0.40348400  1
  O  O42  1  0.17518300  0.12992700  0.39243000  1
  O  O43  1  0.50464200  0.85841600  0.73612600  1
  O  O44  1  0.87426000  0.11291800  0.82778700  1
  O  O45  1  0.11740300  0.71815900  0.64564300  1
  O  O46  1  0.50003000  0.16161000  0.70428900  1
  O  O47  1  0.75891500  0.78318000  0.90027200  1
  O  O48  1  0.67731800  0.43198500  0.86962900  1
  O  O49  1  0.37391500  0.39532200  0.73754400  1
  O  O50  1  0.08620900  0.45903600  0.74101600  1
  O  O51  1  0.06274300  0.10963600  0.67127700  1
  O  O52  1  0.49145800  0.73043500  0.96225300  1
  O  O53  1  0.31246600  0.99260900  0.96430200  1
  O  O54  1  0.03963000  0.69959800  0.88739600  1
