# generated using pymatgen
data_Li4V3P8O29
_symmetry_space_group_name_H-M   'P 1'
_cell_length_a   9.79812059
_cell_length_b   9.79812059
_cell_length_c   14.09911532
_cell_angle_alpha   89.91996579
_cell_angle_beta   89.91996579
_cell_angle_gamma   59.90178842
_symmetry_Int_Tables_number   1
_chemical_formula_structural   Li4V3P8O29
_chemical_formula_sum   'Li8 V6 P16 O58'
_cell_volume   1171.05378425
_cell_formula_units_Z   2
loop_
 _symmetry_equiv_pos_site_id
 _symmetry_equiv_pos_as_xyz
  1  'x, y, z'
loop_
 _atom_site_type_symbol
 _atom_site_label
 _atom_site_symmetry_multiplicity
 _atom_site_fract_x
 _atom_site_fract_y
 _atom_site_fract_z
 _atom_site_occupancy
  Li  Li0  1  0.31754900  0.77630600  0.94225000  1
  Li  Li1  1  0.31397500  0.91435500  0.43920400  1
  Li  Li2  1  0.77630600  0.31754900  0.44225000  1
  Li  Li3  1  0.91435500  0.31397500  0.93920400  1
  Li  Li4  1  0.08564500  0.68602500  0.06079600  1
  Li  Li5  1  0.22369400  0.68245100  0.55775000  1
  Li  Li6  1  0.68602500  0.08564500  0.56079600  1
  Li  Li7  1  0.68245100  0.22369400  0.05775000  1
  V  V8  1  0.56986900  0.43013100  0.25000000  1
  V  V9  1  0.43081100  0.00587400  0.24413300  1
  V  V10  1  0.00587400  0.43081100  0.74413300  1
  V  V11  1  0.99412600  0.56918900  0.25586700  1
  V  V12  1  0.56918900  0.99412600  0.75586700  1
  V  V13  1  0.43013100  0.56986900  0.75000000  1
  P  P14  1  0.32178500  0.76812800  0.15973000  1
  P  P15  1  0.31967100  0.91446600  0.65525100  1
  P  P16  1  0.76812800  0.32178500  0.65973000  1
  P  P17  1  0.66102800  0.66881500  0.37114200  1
  P  P18  1  0.66881500  0.66102800  0.87114200  1
  P  P19  1  0.91446600  0.31967100  0.15525100  1
  P  P20  1  0.08634000  0.22868100  0.33921300  1
  P  P21  1  0.77131900  0.91366000  0.16078700  1
  P  P22  1  0.22868100  0.08634000  0.83921300  1
  P  P23  1  0.91366000  0.77131900  0.66078700  1
  P  P24  1  0.08553400  0.68032900  0.84474900  1
  P  P25  1  0.33118500  0.33897200  0.12885800  1
  P  P26  1  0.33897200  0.33118500  0.62885800  1
  P  P27  1  0.23187200  0.67821500  0.34027000  1
  P  P28  1  0.68032900  0.08553400  0.34474900  1
  P  P29  1  0.67821500  0.23187200  0.84027000  1
  O  O30  1  0.23891400  0.75771200  0.42908800  1
  O  O31  1  0.33699400  0.74800400  0.66058900  1
  O  O32  1  0.20629200  0.00845000  0.74352100  1
  O  O33  1  0.23723800  0.99350600  0.92419800  1
  O  O34  1  0.48119300  0.61835800  0.17659300  1
  O  O35  1  0.34123800  0.91531000  0.16610000  1
  O  O36  1  0.51389800  0.67131300  0.83264500  1
  O  O37  1  0.61835800  0.48119300  0.67659300  1
  O  O38  1  0.75771200  0.23891400  0.92908800  1
  O  O39  1  0.74800400  0.33699400  0.16058900  1
  O  O40  1  0.51243500  0.81792400  0.32911300  1
  O  O41  1  0.67131300  0.51389800  0.33264500  1
  O  O42  1  0.47947500  0.90396300  0.68008800  1
  O  O43  1  0.66531700  0.66938300  0.47648800  1
  O  O44  1  0.66938300  0.66531700  0.97648800  1
  O  O45  1  0.61775100  0.90458000  0.17650300  1
  O  O46  1  0.81792400  0.51243500  0.82911300  1
  O  O47  1  0.66781900  0.81280500  0.82564400  1
  O  O48  1  0.91531000  0.34123800  0.66610000  1
  O  O49  1  0.00845000  0.20629200  0.24352100  1
  O  O50  1  0.99308200  0.25198700  0.06371500  1
  O  O51  1  0.99350600  0.23723800  0.42419800  1
  O  O52  1  0.90396300  0.47947500  0.18008800  1
  O  O53  1  0.81280500  0.66781900  0.32564400  1
  O  O54  1  0.74443300  0.91617100  0.66154400  1
  O  O55  1  0.08382900  0.25556700  0.83845600  1
  O  O56  1  0.90458000  0.61775100  0.67650300  1
  O  O57  1  0.25198700  0.99308200  0.56371500  1
  O  O58  1  0.74801300  0.00691800  0.43628500  1
  O  O59  1  0.09542000  0.38224900  0.32349700  1
  O  O60  1  0.91617100  0.74443300  0.16154400  1
  O  O61  1  0.79370800  0.99155000  0.25647900  1
  O  O62  1  0.25556700  0.08382900  0.33845600  1
  O  O63  1  0.18719500  0.33218100  0.67435600  1
  O  O64  1  0.09603700  0.52052500  0.81991200  1
  O  O65  1  0.00691800  0.74801300  0.93628500  1
  O  O66  1  0.00649400  0.76276200  0.57580200  1
  O  O67  1  0.99155000  0.79370800  0.75647900  1
  O  O68  1  0.08469000  0.65876200  0.33390000  1
  O  O69  1  0.33218100  0.18719500  0.17435600  1
  O  O70  1  0.38224900  0.09542000  0.82349700  1
  O  O71  1  0.18207600  0.48756500  0.17088700  1
  O  O72  1  0.33468300  0.33061700  0.52351200  1
  O  O73  1  0.33061700  0.33468300  0.02351200  1
  O  O74  1  0.52052500  0.09603700  0.31991200  1
  O  O75  1  0.32868700  0.48610200  0.66735500  1
  O  O76  1  0.48756500  0.18207600  0.67088700  1
  O  O77  1  0.25199600  0.66300600  0.83941100  1
  O  O78  1  0.21013500  0.78986500  0.25000000  1
  O  O79  1  0.24228800  0.76108600  0.07091200  1
  O  O80  1  0.38164200  0.51880700  0.32340700  1
  O  O81  1  0.48610200  0.32868700  0.16735500  1
  O  O82  1  0.65876200  0.08469000  0.83390000  1
  O  O83  1  0.51880700  0.38164200  0.82340700  1
  O  O84  1  0.76276200  0.00649400  0.07580200  1
  O  O85  1  0.66300600  0.25199600  0.33941100  1
  O  O86  1  0.76108600  0.24228800  0.57091200  1
  O  O87  1  0.78986500  0.21013500  0.75000000  1
