# generated using pymatgen
data_Li8CrS6
_symmetry_space_group_name_H-M   'P 1'
_cell_length_a   6.85176204
_cell_length_b   6.85176204
_cell_length_c   13.37079900
_cell_angle_alpha   90.00000000
_cell_angle_beta   90.00000000
_cell_angle_gamma   120.00000040
_symmetry_Int_Tables_number   1
_chemical_formula_structural   Li8CrS6
_chemical_formula_sum   'Li16 Cr2 S12'
_cell_volume   543.61637914
_cell_formula_units_Z   2
loop_
 _symmetry_equiv_pos_site_id
 _symmetry_equiv_pos_as_xyz
  1  'x, y, z'
loop_
 _atom_site_type_symbol
 _atom_site_label
 _atom_site_symmetry_multiplicity
 _atom_site_fract_x
 _atom_site_fract_y
 _atom_site_fract_z
 _atom_site_occupancy
  Li  Li0  1  0.00000000  0.68545200  0.76571200  1
  Li  Li1  1  0.00000000  0.62103700  0.13015700  1
  Li  Li2  1  0.00000000  0.37896300  0.63015700  1
  Li  Li3  1  0.00000000  0.31454800  0.26571200  1
  Li  Li4  1  0.33333300  0.66666700  0.40290000  1
  Li  Li5  1  0.33333300  0.66666700  0.90290000  1
  Li  Li6  1  0.31454800  0.31454800  0.76571200  1
  Li  Li7  1  0.37896300  0.37896300  0.13015700  1
  Li  Li8  1  0.62103700  0.62103700  0.63015700  1
  Li  Li9  1  0.31454800  0.00000000  0.26571200  1
  Li  Li10  1  0.68545200  0.68545200  0.26571200  1
  Li  Li11  1  0.37896300  0.00000000  0.63015700  1
  Li  Li12  1  0.66666700  0.33333300  0.90290000  1
  Li  Li13  1  0.66666700  0.33333300  0.40290000  1
  Li  Li14  1  0.62103700  0.00000000  0.13015700  1
  Li  Li15  1  0.68545200  0.00000000  0.76571200  1
  Cr  Cr16  1  0.00000000  0.00000000  0.99858500  1
  Cr  Cr17  1  0.00000000  0.00000000  0.49858500  1
  S  S18  1  0.00000000  0.69520200  0.95073600  1
  S  S19  1  0.00000000  0.30479800  0.45073600  1
  S  S20  1  0.33333300  0.66666700  0.21786600  1
  S  S21  1  0.00000000  0.00000000  0.16578400  1
  S  S22  1  0.00000000  0.00000000  0.66578400  1
  S  S23  1  0.33333300  0.66666700  0.71786600  1
  S  S24  1  0.30479800  0.30479800  0.95073600  1
  S  S25  1  0.30479800  0.00000000  0.45073600  1
  S  S26  1  0.69520200  0.69520200  0.45073600  1
  S  S27  1  0.66666700  0.33333300  0.71786600  1
  S  S28  1  0.66666700  0.33333300  0.21786600  1
  S  S29  1  0.69520200  0.00000000  0.95073600  1
