# generated using pymatgen
data_Li2VF6
_symmetry_space_group_name_H-M   'P 1'
_cell_length_a   8.70751132
_cell_length_b   8.56498330
_cell_length_c   10.21038714
_cell_angle_alpha   85.60554808
_cell_angle_beta   93.76841361
_cell_angle_gamma   118.21770592
_symmetry_Int_Tables_number   1
_chemical_formula_structural   Li2VF6
_chemical_formula_sum   'Li12 V6 F36'
_cell_volume   668.64061849
_cell_formula_units_Z   6
loop_
 _symmetry_equiv_pos_site_id
 _symmetry_equiv_pos_as_xyz
  1  'x, y, z'
loop_
 _atom_site_type_symbol
 _atom_site_label
 _atom_site_symmetry_multiplicity
 _atom_site_fract_x
 _atom_site_fract_y
 _atom_site_fract_z
 _atom_site_occupancy
  Li  Li0  1  0.00887600  0.30178000  0.72452900  1
  Li  Li1  1  0.34606800  0.94710300  0.43347300  1
  Li  Li2  1  0.54975100  0.89182800  0.95715800  1
  Li  Li3  1  0.32981600  0.35877900  0.96787800  1
  Li  Li4  1  0.20079900  0.19750200  0.25590600  1
  Li  Li5  1  0.28445500  0.00684000  0.77619200  1
  Li  Li6  1  0.62213300  0.66504500  0.46721300  1
  Li  Li7  1  0.67663700  0.63514000  0.03105500  1
  Li  Li8  1  0.89555300  0.54337800  0.54617800  1
  Li  Li9  1  0.65661700  0.05674300  0.56634600  1
  Li  Li10  1  0.99458700  0.69955200  0.26850100  1
  Li  Li11  1  0.95030800  0.35523000  0.06494600  1
  V  V12  1  0.99870300  0.00083900  0.50202400  1
  V  V13  1  0.33706100  0.66467800  0.70942700  1
  V  V14  1  0.99325400  0.99057700  0.99375100  1
  V  V15  1  0.33386900  0.66169500  0.20729600  1
  V  V16  1  0.66471300  0.33830300  0.79476300  1
  V  V17  1  0.66056200  0.33458500  0.29103200  1
  F  F18  1  0.08168500  0.92841700  0.65238500  1
  F  F19  1  0.06682400  0.93367700  0.15748500  1
  F  F20  1  0.10905500  0.57154300  0.62847600  1
  F  F21  1  0.10895900  0.57897700  0.12141100  1
  F  F22  1  0.27061900  0.77423000  0.82685100  1
  F  F23  1  0.23697500  0.75095900  0.32880000  1
  F  F24  1  0.06162200  0.21467700  0.57676100  1
  F  F25  1  0.41741300  0.89086600  0.60531100  1
  F  F26  1  0.24443500  0.44388400  0.80919200  1
  F  F27  1  0.09061200  0.23063800  0.06569200  1
  F  F28  1  0.41430700  0.86997700  0.10832100  1
  F  F29  1  0.25489400  0.44142800  0.29024200  1
  F  F30  1  0.42234700  0.59313900  0.58308400  1
  F  F31  1  0.22071000  0.08432400  0.92589400  1
  F  F32  1  0.54734100  0.75260200  0.81102300  1
  F  F33  1  0.42843500  0.58370500  0.07158800  1
  F  F34  1  0.22263100  0.07668600  0.42642700  1
  F  F35  1  0.54001700  0.73886900  0.31083500  1
  F  F36  1  0.45118000  0.24171800  0.70201400  1
  F  F37  1  0.76316000  0.91034300  0.55195300  1
  F  F38  1  0.57561200  0.42272300  0.92252600  1
  F  F39  1  0.43945900  0.25636700  0.20602400  1
  F  F40  1  0.76118800  0.90709300  0.04969600  1
  F  F41  1  0.59808200  0.43494600  0.41848700  1
  F  F42  1  0.74421100  0.54368000  0.68908500  1
  F  F43  1  0.57881300  0.11159800  0.87914700  1
  F  F44  1  0.91463600  0.76307700  0.94460000  1
  F  F45  1  0.75617800  0.55899700  0.19146100  1
  F  F46  1  0.58008400  0.11707300  0.39707000  1
  F  F47  1  0.91840000  0.76118000  0.43930600  1
  F  F48  1  0.76907400  0.26163000  0.66433400  1
  F  F49  1  0.74331400  0.25013800  0.16999400  1
  F  F50  1  0.87238300  0.39565600  0.89254300  1
  F  F51  1  0.88188600  0.43175100  0.38389500  1
  F  F52  1  0.93246200  0.08549100  0.84524400  1
  F  F53  1  0.94714500  0.07607800  0.34281000  1
