# generated using pymatgen
data_LiVF6
_symmetry_space_group_name_H-M   'P 1'
_cell_length_a   5.00240800
_cell_length_b   8.69418700
_cell_length_c   9.69381300
_cell_angle_alpha   90.00000000
_cell_angle_beta   90.00000000
_cell_angle_gamma   90.00000000
_symmetry_Int_Tables_number   1
_chemical_formula_structural   LiVF6
_chemical_formula_sum   'Li4 V4 F24'
_cell_volume   421.60206064
_cell_formula_units_Z   4
loop_
 _symmetry_equiv_pos_site_id
 _symmetry_equiv_pos_as_xyz
  1  'x, y, z'
loop_
 _atom_site_type_symbol
 _atom_site_label
 _atom_site_symmetry_multiplicity
 _atom_site_fract_x
 _atom_site_fract_y
 _atom_site_fract_z
 _atom_site_occupancy
  Li  Li0  1  0.01466800  0.87588100  0.11911900  1
  Li  Li1  1  0.51466800  0.37588100  0.38088100  1
  Li  Li2  1  0.01466800  0.62411900  0.61911900  1
  Li  Li3  1  0.51466800  0.12411900  0.88088100  1
  V  V4  1  0.00012600  0.24735000  0.12861900  1
  V  V5  1  0.50012600  0.74735000  0.37138100  1
  V  V6  1  0.00012600  0.25265000  0.62861900  1
  V  V7  1  0.50012600  0.75265000  0.87138100  1
  F  F8  1  0.82925200  0.10458800  0.01525900  1
  F  F9  1  0.29118200  0.24303400  0.01504100  1
  F  F10  1  0.85549700  0.39657600  0.03187800  1
  F  F11  1  0.12987600  0.07446400  0.21530900  1
  F  F12  1  0.17827400  0.37062300  0.24645600  1
  F  F13  1  0.71543800  0.24506900  0.24602600  1
  F  F14  1  0.21543800  0.74506900  0.25397400  1
  F  F15  1  0.67827400  0.87062300  0.25354400  1
  F  F16  1  0.62987600  0.57446400  0.28469100  1
  F  F17  1  0.35549700  0.89657600  0.46812200  1
  F  F18  1  0.79118200  0.74303400  0.48495900  1
  F  F19  1  0.32925200  0.60458800  0.48474100  1
  F  F20  1  0.82925200  0.39541200  0.51525900  1
  F  F21  1  0.29118200  0.25696600  0.51504100  1
  F  F22  1  0.85549700  0.10342400  0.53187800  1
  F  F23  1  0.12987600  0.42553600  0.71530900  1
  F  F24  1  0.17827400  0.12937700  0.74645600  1
  F  F25  1  0.71543800  0.25493100  0.74602600  1
  F  F26  1  0.21543800  0.75493100  0.75397400  1
  F  F27  1  0.67827400  0.62937700  0.75354400  1
  F  F28  1  0.62987600  0.92553600  0.78469100  1
  F  F29  1  0.35549700  0.60342400  0.96812200  1
  F  F30  1  0.79118200  0.75696600  0.98495900  1
  F  F31  1  0.32925200  0.89541200  0.98474100  1
