# generated using pymatgen
data_LiMn5P3O13
_symmetry_space_group_name_H-M   'P 1'
_cell_length_a   9.31165854
_cell_length_b   9.31165854
_cell_length_c   6.54391800
_cell_angle_alpha   90.00000000
_cell_angle_beta   90.00000000
_cell_angle_gamma   120.00000382
_symmetry_Int_Tables_number   1
_chemical_formula_structural   LiMn5P3O13
_chemical_formula_sum   'Li2 Mn10 P6 O26'
_cell_volume   491.38573798
_cell_formula_units_Z   2
loop_
 _symmetry_equiv_pos_site_id
 _symmetry_equiv_pos_as_xyz
  1  'x, y, z'
loop_
 _atom_site_type_symbol
 _atom_site_label
 _atom_site_symmetry_multiplicity
 _atom_site_fract_x
 _atom_site_fract_y
 _atom_site_fract_z
 _atom_site_occupancy
  Li  Li0  1  0.00000000  0.00000000  0.52597000  1
  Li  Li1  1  0.00000000  0.00000000  0.02597000  1
  Mn  Mn2  1  0.25291200  0.01468000  0.27173100  1
  Mn  Mn3  1  0.98532000  0.23823200  0.27173100  1
  Mn  Mn4  1  0.33333300  0.66666700  0.01589900  1
  Mn  Mn5  1  0.33333300  0.66666700  0.50599600  1
  Mn  Mn6  1  0.23823200  0.25291200  0.77173100  1
  Mn  Mn7  1  0.76176800  0.74708800  0.27173100  1
  Mn  Mn8  1  0.66666700  0.33333300  0.00599600  1
  Mn  Mn9  1  0.66666700  0.33333300  0.51589900  1
  Mn  Mn10  1  0.01468000  0.76176800  0.77173100  1
  Mn  Mn11  1  0.74708800  0.98532000  0.77173100  1
  P  P12  1  0.02618100  0.39809900  0.76804200  1
  P  P13  1  0.37191800  0.97381900  0.76804200  1
  P  P14  1  0.39809900  0.37191800  0.26804200  1
  P  P15  1  0.60190100  0.62808200  0.76804200  1
  P  P16  1  0.62808200  0.02618100  0.26804200  1
  P  P17  1  0.97381900  0.60190100  0.26804200  1
  O  O18  1  0.25088000  0.92528100  0.58290200  1
  O  O19  1  0.26262200  0.91929000  0.96382300  1
  O  O20  1  0.16050800  0.65858000  0.26622500  1
  O  O21  1  0.13237300  0.59271400  0.75719500  1
  O  O22  1  0.08071000  0.34333200  0.96382300  1
  O  O23  1  0.07471900  0.32560000  0.58290200  1
  O  O24  1  0.00000000  0.00000000  0.27617100  1
  O  O25  1  0.00000000  0.00000000  0.77617100  1
  O  O26  1  0.46034000  0.86762700  0.75719500  1
  O  O27  1  0.34142000  0.50192800  0.26622500  1
  O  O28  1  0.49807200  0.83949200  0.26622500  1
  O  O29  1  0.40728600  0.53966000  0.75719500  1
  O  O30  1  0.32560000  0.25088000  0.08290200  1
  O  O31  1  0.34333200  0.26262200  0.46382300  1
  O  O32  1  0.65666800  0.73737800  0.96382300  1
  O  O33  1  0.67440000  0.74912000  0.58290200  1
  O  O34  1  0.59271400  0.46034000  0.25719500  1
  O  O35  1  0.50192800  0.16050800  0.76622500  1
  O  O36  1  0.65858000  0.49807200  0.76622500  1
  O  O37  1  0.53966000  0.13237300  0.25719500  1
  O  O38  1  0.92528100  0.67440000  0.08290200  1
  O  O39  1  0.91929000  0.65666800  0.46382300  1
  O  O40  1  0.86762700  0.40728600  0.25719500  1
  O  O41  1  0.83949200  0.34142000  0.76622500  1
  O  O42  1  0.74912000  0.07471900  0.08290200  1
  O  O43  1  0.73737800  0.08071000  0.46382300  1
