# generated using pymatgen
data_Li4Ti3Nb2Co3O16
_symmetry_space_group_name_H-M   'P 1'
_cell_length_a   6.01475252
_cell_length_b   11.51609568
_cell_length_c   10.36491975
_cell_angle_alpha   116.41907472
_cell_angle_beta   90.46728303
_cell_angle_gamma   105.21061300
_symmetry_Int_Tables_number   1
_chemical_formula_structural   Li4Ti3Nb2Co3O16
_chemical_formula_sum   'Li8 Ti6 Nb4 Co6 O32'
_cell_volume   613.92457067
_cell_formula_units_Z   2
loop_
 _symmetry_equiv_pos_site_id
 _symmetry_equiv_pos_as_xyz
  1  'x, y, z'
loop_
 _atom_site_type_symbol
 _atom_site_label
 _atom_site_symmetry_multiplicity
 _atom_site_fract_x
 _atom_site_fract_y
 _atom_site_fract_z
 _atom_site_occupancy
  Li  Li0  1  0.94973100  0.90368300  0.61979400  1
  Li  Li1  1  0.44977600  0.90368600  0.11972900  1
  Li  Li2  1  0.49206200  0.98583400  0.49382100  1
  Li  Li3  1  0.99204000  0.98572600  0.99377500  1
  Li  Li4  1  0.75014600  0.49510800  0.74631900  1
  Li  Li5  1  0.25008800  0.49509000  0.24630100  1
  Li  Li6  1  0.20332200  0.40729000  0.53711900  1
  Li  Li7  1  0.70330100  0.40726200  0.03716900  1
  Ti  Ti8  1  0.13373200  0.73384400  0.77804700  1
  Ti  Ti9  1  0.63369700  0.73381600  0.27809300  1
  Ti  Ti10  1  0.37777500  0.22065000  0.18880400  1
  Ti  Ti11  1  0.87780100  0.22061200  0.68871200  1
  Ti  Ti12  1  0.62672900  0.21993100  0.43702100  1
  Ti  Ti13  1  0.12662300  0.21993100  0.93704800  1
  Nb  Nb14  1  0.75055200  0.49971300  0.41621900  1
  Nb  Nb15  1  0.25025000  0.49967200  0.91619700  1
  Nb  Nb16  1  0.52068400  0.98809100  0.81876800  1
  Nb  Nb17  1  0.02089500  0.98793700  0.31870100  1
  Co  Co18  1  0.85007800  0.20898100  0.18946700  1
  Co  Co19  1  0.85231900  0.70890100  0.02508500  1
  Co  Co20  1  0.59717400  0.70891400  0.76996500  1
  Co  Co21  1  0.35002000  0.20903600  0.68941400  1
  Co  Co22  1  0.35234900  0.70885300  0.52498700  1
  Co  Co23  1  0.09762400  0.70899200  0.26983000  1
  O  O24  1  0.44471600  0.33299800  0.40670100  1
  O  O25  1  0.94476400  0.33306300  0.90673600  1
  O  O26  1  0.53210000  0.10682300  0.22721300  1
  O  O27  1  0.03210600  0.10685300  0.72720800  1
  O  O28  1  0.66144000  0.30524900  0.64956200  1
  O  O29  1  0.16142500  0.30522700  0.14953400  1
  O  O30  1  0.90807700  0.79783100  0.89557200  1
  O  O31  1  0.40784400  0.79797000  0.39553000  1
  O  O32  1  0.79666000  0.10313700  0.46973300  1
  O  O33  1  0.29674700  0.10311200  0.96968100  1
  O  O34  1  0.03878800  0.57985900  0.37344000  1
  O  O35  1  0.53855300  0.58011400  0.87351700  1
  O  O36  1  0.28372400  0.60858100  0.64462300  1
  O  O37  1  0.78416800  0.60871000  0.14503400  1
  O  O38  1  0.64763300  0.85302000  0.68638800  1
  O  O39  1  0.14776700  0.85311100  0.18614000  1
  O  O40  1  0.55315300  0.58874700  0.37678600  1
  O  O41  1  0.05288000  0.58873000  0.87697700  1
  O  O42  1  0.80057800  0.58893000  0.62356700  1
  O  O43  1  0.30049500  0.58883400  0.12358200  1
  O  O44  1  0.65433000  0.33754000  0.18657800  1
  O  O45  1  0.15433700  0.33768800  0.68665100  1
  O  O46  1  0.88434600  0.33760900  0.41692400  1
  O  O47  1  0.38429900  0.33757200  0.91685600  1
  O  O48  1  0.19035900  0.84950800  0.69075700  1
  O  O49  1  0.69035100  0.84926000  0.19058500  1
  O  O50  1  0.40704600  0.85017100  0.90964600  1
  O  O51  1  0.90714100  0.85028400  0.40967300  1
  O  O52  1  0.04848900  0.09328700  0.21362900  1
  O  O53  1  0.54862200  0.09332800  0.71359000  1
  O  O54  1  0.29791200  0.09349800  0.46240000  1
  O  O55  1  0.79791600  0.09348000  0.96233400  1
