# generated using pymatgen
data_Li2Mn3CoO8
_symmetry_space_group_name_H-M   'P 1'
_cell_length_a   5.83729186
_cell_length_b   5.83729186
_cell_length_c   9.64964800
_cell_angle_alpha   90.00000000
_cell_angle_beta   90.00000000
_cell_angle_gamma   119.99999842
_symmetry_Int_Tables_number   1
_chemical_formula_structural   Li2Mn3CoO8
_chemical_formula_sum   'Li4 Mn6 Co2 O16'
_cell_volume   284.75078274
_cell_formula_units_Z   2
loop_
 _symmetry_equiv_pos_site_id
 _symmetry_equiv_pos_as_xyz
  1  'x, y, z'
loop_
 _atom_site_type_symbol
 _atom_site_label
 _atom_site_symmetry_multiplicity
 _atom_site_fract_x
 _atom_site_fract_y
 _atom_site_fract_z
 _atom_site_occupancy
  Li  Li0  1  0.33333300  0.66666700  0.88619600  1
  Li  Li1  1  0.00000000  0.00000000  0.99813600  1
  Li  Li2  1  0.00000000  0.00000000  0.49813600  1
  Li  Li3  1  0.66666700  0.33333300  0.38619600  1
  Mn  Mn4  1  0.16881700  0.83118300  0.21523100  1
  Mn  Mn5  1  0.16881700  0.33763400  0.21523100  1
  Mn  Mn6  1  0.66236600  0.83118300  0.21523100  1
  Mn  Mn7  1  0.33763400  0.16881700  0.71523100  1
  Mn  Mn8  1  0.83118300  0.66236600  0.71523100  1
  Mn  Mn9  1  0.83118300  0.16881700  0.71523100  1
  Co  Co10  1  0.33333300  0.66666700  0.49351400  1
  Co  Co11  1  0.66666700  0.33333300  0.99351400  1
  O  O12  1  0.15889000  0.84111000  0.60641300  1
  O  O13  1  0.03519600  0.51759800  0.33021700  1
  O  O14  1  0.33333300  0.66666700  0.10896000  1
  O  O15  1  0.00000000  0.00000000  0.31151100  1
  O  O16  1  0.00000000  0.00000000  0.81151100  1
  O  O17  1  0.15889000  0.31778100  0.60641300  1
  O  O18  1  0.48240200  0.96480400  0.33021700  1
  O  O19  1  0.48240200  0.51759800  0.33021700  1
  O  O20  1  0.31778100  0.15889000  0.10641300  1
  O  O21  1  0.68221900  0.84111000  0.60641300  1
  O  O22  1  0.51759800  0.48240200  0.83021700  1
  O  O23  1  0.51759800  0.03519600  0.83021700  1
  O  O24  1  0.66666700  0.33333300  0.60896000  1
  O  O25  1  0.84111000  0.68221900  0.10641300  1
  O  O26  1  0.96480400  0.48240200  0.83021700  1
  O  O27  1  0.84111000  0.15889000  0.10641300  1
