# generated using pymatgen
data_Ba4Li4Ti19O44
_symmetry_space_group_name_H-M   'P 1'
_cell_length_a   5.86255000
_cell_length_b   10.03204456
_cell_length_c   14.24870259
_cell_angle_alpha   89.92202218
_cell_angle_beta   89.91305525
_cell_angle_gamma   89.96806825
_symmetry_Int_Tables_number   1
_chemical_formula_structural   Ba4Li4Ti19O44
_chemical_formula_sum   'Ba4 Li4 Ti19 O44'
_cell_volume   838.01224476
_cell_formula_units_Z   1
loop_
 _symmetry_equiv_pos_site_id
 _symmetry_equiv_pos_as_xyz
  1  'x, y, z'
loop_
 _atom_site_type_symbol
 _atom_site_label
 _atom_site_symmetry_multiplicity
 _atom_site_fract_x
 _atom_site_fract_y
 _atom_site_fract_z
 _atom_site_occupancy
  Ba  Ba0  1  0.25448300  0.91152000  0.59069400  1
  Ba  Ba1  1  0.24867200  0.60612900  0.09239700  1
  Ba  Ba2  1  0.75294500  0.39755000  0.90043100  1
  Ba  Ba3  1  0.74415500  0.09888400  0.40934400  1
  Li  Li4  1  0.25070400  0.59664300  0.66735600  1
  Li  Li5  1  0.25200800  0.56905800  0.51816600  1
  Li  Li6  1  0.74790900  0.42387500  0.46417900  1
  Li  Li7  1  0.75076900  0.07424300  0.96090700  1
  Ti  Ti8  1  0.00135300  0.16577100  0.17073700  1
  Ti  Ti9  1  0.99923200  0.83611300  0.82816400  1
  Ti  Ti10  1  0.99770900  0.66827200  0.32890100  1
  Ti  Ti11  1  0.25218200  0.10838700  0.82366700  1
  Ti  Ti12  1  0.24814200  0.93769300  0.33356700  1
  Ti  Ti13  1  0.24246500  0.56972000  0.84448400  1
  Ti  Ti14  1  0.25081100  0.25562300  0.99629000  1
  Ti  Ti15  1  0.22763300  0.24740500  0.51342000  1
  Ti  Ti16  1  0.25856900  0.38665500  0.33443700  1
  Ti  Ti17  1  0.50284000  0.66785300  0.32796400  1
  Ti  Ti18  1  0.50195500  0.83993700  0.82523400  1
  Ti  Ti19  1  0.49847900  0.16511700  0.17024800  1
  Ti  Ti20  1  0.49388700  0.33530900  0.67154200  1
  Ti  Ti21  1  0.74242700  0.76476900  0.51051100  1
  Ti  Ti22  1  0.76975000  0.58560500  0.67126800  1
  Ti  Ti23  1  0.75258100  0.43388100  0.16740200  1
  Ti  Ti24  1  0.75210200  0.89206500  0.16555600  1
  Ti  Ti25  1  0.74329100  0.73477700  0.00243300  1
  Ti  Ti26  1  0.77167600  0.09104200  0.66665700  1
  O  O27  1  0.00739800  0.52510000  0.75721600  1
  O  O28  1  0.00201800  0.00178300  0.25171600  1
  O  O29  1  0.00969300  0.67496500  0.91509100  1
  O  O30  1  0.00718000  0.82326700  0.40976300  1
  O  O31  1  0.03266500  0.17781500  0.91710300  1
  O  O32  1  0.03043600  0.32448300  0.41786300  1
  O  O33  1  0.24817100  0.92312800  0.89042000  1
  O  O34  1  0.24950700  0.57100100  0.39052800  1
  O  O35  1  0.25342600  0.74524600  0.76132300  1
  O  O36  1  0.24764000  0.43262400  0.93176100  1
  O  O37  1  0.27056900  0.25106400  0.74964900  1
  O  O38  1  0.25435300  0.06423600  0.42382900  1
  O  O39  1  0.24939200  0.10985300  0.09019600  1
  O  O40  1  0.25105300  0.75208400  0.26202200  1
  O  O41  1  0.26375800  0.39991000  0.58344600  1
  O  O42  1  0.24894700  0.24269400  0.24657800  1
  O  O43  1  0.46907600  0.17653800  0.91888900  1
  O  O44  1  0.46914200  0.32215700  0.41475500  1
  O  O45  1  0.49583200  0.67189100  0.91424100  1
  O  O46  1  0.49589700  0.82250100  0.41100700  1
  O  O47  1  0.49641000  0.00166200  0.25122700  1
  O  O48  1  0.49099300  0.50424600  0.75025200  1
  O  O49  1  0.50099200  0.99906100  0.74968600  1
  O  O50  1  0.50415500  0.49963200  0.24750200  1
  O  O51  1  0.50024100  0.17392200  0.58585000  1
  O  O52  1  0.50584900  0.32417200  0.08966500  1
  O  O53  1  0.52446900  0.67749500  0.58458400  1
  O  O54  1  0.53688600  0.81782400  0.08587300  1
  O  O55  1  0.72842000  0.43353100  0.60320600  1
  O  O56  1  0.74305600  0.92734600  0.56857600  1
  O  O57  1  0.75099300  0.89192200  0.91222800  1
  O  O58  1  0.75045300  0.75836700  0.75481200  1
  O  O59  1  0.74964500  0.74424400  0.25398500  1
  O  O60  1  0.74979500  0.60491300  0.40981800  1
  O  O61  1  0.75023200  0.56429300  0.06991700  1
  O  O62  1  0.73354100  0.23894000  0.73634500  1
  O  O63  1  0.74956700  0.25350800  0.23724100  1
  O  O64  1  0.75053100  0.07282700  0.10375100  1
  O  O65  1  0.97857800  0.67224300  0.58421500  1
  O  O66  1  0.96076600  0.81776000  0.08566800  1
  O  O67  1  0.99238600  0.32478200  0.08993400  1
  O  O68  1  0.99856100  0.15155800  0.57786800  1
  O  O69  1  0.99042800  0.50168300  0.24587900  1
  O  O70  1  0.99823000  0.00214400  0.74851800  1
