# generated using pymatgen
data_LiFeF4
_symmetry_space_group_name_H-M   'P 1'
_cell_length_a   4.77599700
_cell_length_b   5.65517900
_cell_length_c   10.27187900
_cell_angle_alpha   90.00000000
_cell_angle_beta   90.00000000
_cell_angle_gamma   90.00000000
_symmetry_Int_Tables_number   1
_chemical_formula_structural   LiFeF4
_chemical_formula_sum   'Li4 Fe4 F16'
_cell_volume   277.43439136
_cell_formula_units_Z   4
loop_
 _symmetry_equiv_pos_site_id
 _symmetry_equiv_pos_as_xyz
  1  'x, y, z'
loop_
 _atom_site_type_symbol
 _atom_site_label
 _atom_site_symmetry_multiplicity
 _atom_site_fract_x
 _atom_site_fract_y
 _atom_site_fract_z
 _atom_site_occupancy
  Li  Li0  1  0.00000000  0.50000000  0.00000000  1
  Li  Li1  1  0.00000000  0.50000000  0.50000000  1
  Li  Li2  1  0.50000000  0.00000000  0.00000000  1
  Li  Li3  1  0.50000000  0.00000000  0.50000000  1
  Fe  Fe4  1  0.00000000  0.83230000  0.25000000  1
  Fe  Fe5  1  0.00000000  0.16770000  0.75000000  1
  Fe  Fe6  1  0.50000000  0.33230000  0.25000000  1
  Fe  Fe7  1  0.50000000  0.66770000  0.75000000  1
  F  F8  1  0.19706700  0.19468400  0.58968300  1
  F  F9  1  0.19706700  0.80531600  0.08968300  1
  F  F10  1  0.23805200  0.43383000  0.82450700  1
  F  F11  1  0.23805200  0.56617000  0.32450700  1
  F  F12  1  0.26194800  0.06617000  0.32450700  1
  F  F13  1  0.26194800  0.93383000  0.82450700  1
  F  F14  1  0.30293300  0.30531600  0.08968300  1
  F  F15  1  0.30293300  0.69468400  0.58968300  1
  F  F16  1  0.69706700  0.30531600  0.41031700  1
  F  F17  1  0.69706700  0.69468400  0.91031700  1
  F  F18  1  0.73805200  0.93383000  0.67549300  1
  F  F19  1  0.73805200  0.06617000  0.17549300  1
  F  F20  1  0.76194800  0.56617000  0.17549300  1
  F  F21  1  0.76194800  0.43383000  0.67549300  1
  F  F22  1  0.80293300  0.80531600  0.41031700  1
  F  F23  1  0.80293300  0.19468400  0.91031700  1
