# generated using pymatgen
data_Li5Mn3Cr(PO4)4
_symmetry_space_group_name_H-M   'P 1'
_cell_length_a   4.88127200
_cell_length_b   6.38985421
_cell_length_c   10.58932769
_cell_angle_alpha   92.23939672
_cell_angle_beta   91.61019571
_cell_angle_gamma   90.30276137
_symmetry_Int_Tables_number   1
_chemical_formula_structural   Li5Mn3Cr(PO4)4
_chemical_formula_sum   'Li5 Mn3 Cr1 P4 O16'
_cell_volume   329.89835710
_cell_formula_units_Z   1
loop_
 _symmetry_equiv_pos_site_id
 _symmetry_equiv_pos_as_xyz
  1  'x, y, z'
loop_
 _atom_site_type_symbol
 _atom_site_label
 _atom_site_symmetry_multiplicity
 _atom_site_fract_x
 _atom_site_fract_y
 _atom_site_fract_z
 _atom_site_occupancy
  Li  Li0  1  0.99664500  0.01007000  0.00085600  1
  Li  Li1  1  0.00181400  0.49463800  0.00363800  1
  Li  Li2  1  0.62531900  0.45328400  0.36029100  1
  Li  Li3  1  0.46632200  0.02631800  0.50504000  1
  Li  Li4  1  0.38498500  0.52596300  0.62109300  1
  Mn  Mn5  1  0.93775000  0.76904000  0.71934200  1
  Mn  Mn6  1  0.52957200  0.77477300  0.21069200  1
  Mn  Mn7  1  0.45866700  0.23143600  0.79683600  1
  Cr  Cr8  1  0.09945900  0.23206700  0.28440800  1
  P  P9  1  0.88455700  0.25466200  0.59882600  1
  P  P10  1  0.58596500  0.25507600  0.09030300  1
  P  P11  1  0.40203500  0.74732800  0.90233600  1
  P  P12  1  0.10861100  0.74115500  0.40603000  1
  O  O13  1  0.77707900  0.23904100  0.46120100  1
  O  O14  1  0.79404500  0.73644500  0.38765700  1
  O  O15  1  0.75182500  0.06412200  0.66755100  1
  O  O16  1  0.76399200  0.45591900  0.66698900  1
  O  O17  1  0.70972800  0.05595200  0.15132900  1
  O  O18  1  0.69357200  0.45343200  0.16871000  1
  O  O19  1  0.71747700  0.76054100  0.90119500  1
  O  O20  1  0.72240200  0.26396300  0.95695500  1
  O  O21  1  0.28331500  0.73718700  0.03646700  1
  O  O22  1  0.27220200  0.24704500  0.07315500  1
  O  O23  1  0.28594700  0.55480500  0.81976300  1
  O  O24  1  0.26334400  0.94107500  0.83864300  1
  O  O25  1  0.24769600  0.54854700  0.34262200  1
  O  O26  1  0.24738500  0.93206400  0.34541800  1
  O  O27  1  0.20150500  0.25096200  0.61327400  1
  O  O28  1  0.19237400  0.75699400  0.55123000  1
