# generated using pymatgen
data_NaLi5Mn2P2(CO7)2
_symmetry_space_group_name_H-M   'P 1'
_cell_length_a   6.64317600
_cell_length_b   8.64950636
_cell_length_c   10.01801592
_cell_angle_alpha   91.92029012
_cell_angle_beta   90.13944748
_cell_angle_gamma   90.35213634
_symmetry_Int_Tables_number   1
_chemical_formula_structural   NaLi5Mn2P2(CO7)2
_chemical_formula_sum   'Na2 Li10 Mn4 P4 C4 O28'
_cell_volume   575.30098561
_cell_formula_units_Z   2
loop_
 _symmetry_equiv_pos_site_id
 _symmetry_equiv_pos_as_xyz
  1  'x, y, z'
loop_
 _atom_site_type_symbol
 _atom_site_label
 _atom_site_symmetry_multiplicity
 _atom_site_fract_x
 _atom_site_fract_y
 _atom_site_fract_z
 _atom_site_occupancy
  Na  Na0  1  0.24529800  0.91389100  0.37612400  1
  Na  Na1  1  0.50007700  0.24817800  0.37561000  1
  Li  Li2  1  0.24856600  0.92053100  0.87163000  1
  Li  Li3  1  0.02569200  0.73288200  0.61617300  1
  Li  Li4  1  0.47381000  0.73311900  0.61575900  1
  Li  Li5  1  0.02541000  0.73205400  0.11097200  1
  Li  Li6  1  0.47523600  0.73427800  0.11163200  1
  Li  Li7  1  0.52343700  0.26284200  0.88303600  1
  Li  Li8  1  0.97428800  0.26460000  0.88394500  1
  Li  Li9  1  0.97294600  0.27215300  0.38837600  1
  Li  Li10  1  0.75617200  0.08302600  0.63094900  1
  Li  Li11  1  0.76283500  0.08765700  0.12535600  1
  Mn  Mn12  1  0.75099700  0.65011100  0.88570700  1
  Mn  Mn13  1  0.74725300  0.64303800  0.38927700  1
  Mn  Mn14  1  0.24525400  0.35415500  0.61896500  1
  Mn  Mn15  1  0.24874200  0.35167500  0.10891000  1
  P  P16  1  0.25085900  0.59507200  0.85477100  1
  P  P17  1  0.24283600  0.58556700  0.35717200  1
  P  P18  1  0.74891900  0.40923200  0.65125500  1
  P  P19  1  0.75437000  0.40929400  0.14244600  1
  C  C20  1  0.75031900  0.96253800  0.86427600  1
  C  C21  1  0.75925900  0.95619900  0.36148600  1
  C  C22  1  0.24946000  0.04774700  0.64186600  1
  C  C23  1  0.25045200  0.03869800  0.12723100  1
  O  O24  1  0.25119100  0.89800400  0.65673200  1
  O  O25  1  0.24989400  0.89049300  0.14557600  1
  O  O26  1  0.75274300  0.91999100  0.98650400  1
  O  O27  1  0.75025000  0.92012200  0.48616100  1
  O  O28  1  0.75102300  0.85963800  0.76582200  1
  O  O29  1  0.74435800  0.84866400  0.26765000  1
  O  O30  1  0.06731700  0.68905900  0.90743700  1
  O  O31  1  0.43572300  0.68973900  0.90728800  1
  O  O32  1  0.06246800  0.68359300  0.40986300  1
  O  O33  1  0.43217300  0.67206100  0.41349200  1
  O  O34  1  0.24920200  0.58891700  0.69808300  1
  O  O35  1  0.75206800  0.57888800  0.60291300  1
  O  O36  1  0.24742700  0.58230300  0.20050900  1
  O  O37  1  0.75095200  0.57843800  0.09459400  1
  O  O38  1  0.25183700  0.42463800  0.89991400  1
  O  O39  1  0.75625800  0.41805700  0.80756400  1
  O  O40  1  0.22957700  0.41638900  0.40269700  1
  O  O41  1  0.76723600  0.41781500  0.29834200  1
  O  O42  1  0.56024700  0.31660800  0.60469000  1
  O  O43  1  0.92861900  0.31160700  0.59653800  1
  O  O44  1  0.56587600  0.31317800  0.09689700  1
  O  O45  1  0.93365900  0.31290400  0.08532700  1
  O  O46  1  0.24410300  0.13933400  0.74707700  1
  O  O47  1  0.25133200  0.13540900  0.22997200  1
  O  O48  1  0.25242100  0.10638200  0.52487300  1
  O  O49  1  0.24958100  0.09158800  0.00812200  1
  O  O50  1  0.74751900  0.10857600  0.83508700  1
  O  O51  1  0.78245900  0.09907000  0.32735100  1
