# generated using pymatgen
data_LiCoH8(SO6)2
_symmetry_space_group_name_H-M   'P 1'
_cell_length_a   8.11719900
_cell_length_b   5.50053800
_cell_length_c   10.96166573
_cell_angle_alpha   78.15761694
_cell_angle_beta   90.00000000
_cell_angle_gamma   90.00000000
_symmetry_Int_Tables_number   1
_chemical_formula_structural   LiCoH8(SO6)2
_chemical_formula_sum   'Li2 Co2 H16 S4 O24'
_cell_volume   479.00995457
_cell_formula_units_Z   2
loop_
 _symmetry_equiv_pos_site_id
 _symmetry_equiv_pos_as_xyz
  1  'x, y, z'
loop_
 _atom_site_type_symbol
 _atom_site_label
 _atom_site_symmetry_multiplicity
 _atom_site_fract_x
 _atom_site_fract_y
 _atom_site_fract_z
 _atom_site_occupancy
  Li  Li0  1  0.30645000  0.11646300  0.62893700  1
  Li  Li1  1  0.69355000  0.11646300  0.12893700  1
  Co  Co2  1  0.24358700  0.99846600  0.00031200  1
  Co  Co3  1  0.75641300  0.99846600  0.50031200  1
  H  H4  1  0.96511400  0.22680700  0.98048300  1
  H  H5  1  0.38504400  0.77508800  0.84416500  1
  H  H6  1  0.18579400  0.77879600  0.81831400  1
  H  H7  1  0.05584900  0.33356600  0.85590500  1
  H  H8  1  0.55665000  0.67742400  0.64411600  1
  H  H9  1  0.69028600  0.21343300  0.68624200  1
  H  H10  1  0.88818400  0.22497700  0.65586300  1
  H  H11  1  0.46730400  0.77184300  0.51598600  1
  H  H12  1  0.03488600  0.22680700  0.48048300  1
  H  H13  1  0.61495600  0.77508800  0.34416500  1
  H  H14  1  0.81420600  0.77879600  0.31831400  1
  H  H15  1  0.94415100  0.33356600  0.35590500  1
  H  H16  1  0.44335000  0.67742400  0.14411600  1
  H  H17  1  0.30971400  0.21343300  0.18624200  1
  H  H18  1  0.11181600  0.22497700  0.15586300  1
  H  H19  1  0.53269600  0.77184300  0.01598600  1
  S  S20  1  0.53447200  0.36559500  0.86766500  1
  S  S21  1  0.04676100  0.63489800  0.63612800  1
  S  S22  1  0.46552800  0.36559500  0.36766500  1
  S  S23  1  0.95323900  0.63489800  0.13612800  1
  O  O24  1  0.36814800  0.29561800  0.92915400  1
  O  O25  1  0.66381100  0.21126100  0.93604400  1
  O  O26  1  0.04213300  0.17820500  0.92036500  1
  O  O27  1  0.55680500  0.63341600  0.86870700  1
  O  O28  1  0.28234300  0.88262900  0.83454100  1
  O  O29  1  0.02528300  0.63413200  0.77133600  1
  O  O30  1  0.52230700  0.33508800  0.73476900  1
  O  O31  1  0.78579100  0.12671000  0.65571200  1
  O  O32  1  0.08114600  0.37382100  0.62263300  1
  O  O33  1  0.53811300  0.82770900  0.57865500  1
  O  O34  1  0.17354200  0.81079700  0.58116200  1
  O  O35  1  0.88116000  0.70160800  0.57069600  1
  O  O36  1  0.63185200  0.29561800  0.42915400  1
  O  O37  1  0.33618900  0.21126100  0.43604400  1
  O  O38  1  0.95786700  0.17820500  0.42036500  1
  O  O39  1  0.44319500  0.63341600  0.36870700  1
  O  O40  1  0.71765700  0.88262900  0.33454100  1
  O  O41  1  0.97471700  0.63413200  0.27133600  1
  O  O42  1  0.47769300  0.33508800  0.23476900  1
  O  O43  1  0.21420900  0.12671000  0.15571200  1
  O  O44  1  0.91885400  0.37382100  0.12263300  1
  O  O45  1  0.46188700  0.82770900  0.07865500  1
  O  O46  1  0.82645800  0.81079700  0.08116200  1
  O  O47  1  0.11884000  0.70160800  0.07069600  1
