# generated using pymatgen
data_Li4V3Co2Sn3O16
_symmetry_space_group_name_H-M   'P 1'
_cell_length_a   6.09065100
_cell_length_b   6.13486816
_cell_length_c   9.83687968
_cell_angle_alpha   90.05294054
_cell_angle_beta   90.24980576
_cell_angle_gamma   119.48819046
_symmetry_Int_Tables_number   1
_chemical_formula_structural   Li4V3Co2Sn3O16
_chemical_formula_sum   'Li4 V3 Co2 Sn3 O16'
_cell_volume   319.93878252
_cell_formula_units_Z   1
loop_
 _symmetry_equiv_pos_site_id
 _symmetry_equiv_pos_as_xyz
  1  'x, y, z'
loop_
 _atom_site_type_symbol
 _atom_site_label
 _atom_site_symmetry_multiplicity
 _atom_site_fract_x
 _atom_site_fract_y
 _atom_site_fract_z
 _atom_site_occupancy
  Li  Li0  1  0.63320200  0.31964000  0.89223200  1
  Li  Li1  1  0.03829200  0.01669900  0.99258400  1
  Li  Li2  1  0.00764600  0.99812900  0.50059700  1
  Li  Li3  1  0.32607800  0.65759000  0.39632200  1
  V  V4  1  0.34269200  0.16656500  0.21790000  1
  V  V5  1  0.12711000  0.77520600  0.73449800  1
  V  V6  1  0.18936100  0.32282400  0.69946600  1
  Co  Co7  1  0.67991600  0.35076500  0.49514000  1
  Co  Co8  1  0.34220100  0.66993500  0.99604600  1
  Sn  Sn9  1  0.83687400  0.17022900  0.21267900  1
  Sn  Sn10  1  0.83406200  0.66322200  0.21317500  1
  Sn  Sn11  1  0.65436500  0.84284200  0.71493400  1
  O  O12  1  0.85401400  0.17279500  0.60163900  1
  O  O13  1  0.96877300  0.47828700  0.33836400  1
  O  O14  1  0.65843400  0.32925600  0.09879700  1
  O  O15  1  0.01274800  0.00425500  0.31801000  1
  O  O16  1  0.01200900  0.00510200  0.80910900  1
  O  O17  1  0.84826100  0.69011100  0.60384200  1
  O  O18  1  0.50020700  0.03334100  0.32915000  1
  O  O19  1  0.51473100  0.47924000  0.33392900  1
  O  O20  1  0.69936400  0.85344200  0.09172400  1
  O  O21  1  0.32950300  0.19172000  0.59808600  1
  O  O22  1  0.46174100  0.51342400  0.83309300  1
  O  O23  1  0.45372800  0.96305500  0.83254900  1
  O  O24  1  0.30694400  0.65878100  0.60807000  1
  O  O25  1  0.18576300  0.31768300  0.10753200  1
  O  O26  1  0.00806200  0.50784700  0.83411000  1
  O  O27  1  0.17392000  0.84771600  0.10426800  1
