# generated using pymatgen
data_Li3SbS3
_symmetry_space_group_name_H-M   'P 1'
_cell_length_a   8.29570200
_cell_length_b   8.29570200
_cell_length_c   8.29570200
_cell_angle_alpha   90.00000000
_cell_angle_beta   90.00000000
_cell_angle_gamma   90.00000000
_symmetry_Int_Tables_number   1
_chemical_formula_structural   Li3SbS3
_chemical_formula_sum   'Li12 Sb4 S12'
_cell_volume   570.89919223
_cell_formula_units_Z   4
loop_
 _symmetry_equiv_pos_site_id
 _symmetry_equiv_pos_as_xyz
  1  'x, y, z'
loop_
 _atom_site_type_symbol
 _atom_site_label
 _atom_site_symmetry_multiplicity
 _atom_site_fract_x
 _atom_site_fract_y
 _atom_site_fract_z
 _atom_site_occupancy
  Li  Li0  1  0.01908600  0.01908600  0.01908600  1
  Li  Li1  1  0.20962700  0.29037300  0.70962700  1
  Li  Li2  1  0.21502500  0.71502500  0.78497500  1
  Li  Li3  1  0.28497500  0.28497500  0.28497500  1
  Li  Li4  1  0.29037300  0.70962700  0.20962700  1
  Li  Li5  1  0.48091400  0.98091400  0.51908600  1
  Li  Li6  1  0.51908600  0.48091400  0.98091400  1
  Li  Li7  1  0.70962700  0.20962700  0.29037300  1
  Li  Li8  1  0.71502500  0.78497500  0.21502500  1
  Li  Li9  1  0.78497500  0.21502500  0.71502500  1
  Li  Li10  1  0.79037300  0.79037300  0.79037300  1
  Li  Li11  1  0.98091400  0.51908600  0.48091400  1
  Sb  Sb12  1  0.03919200  0.96080800  0.46080800  1
  Sb  Sb13  1  0.46080800  0.03919200  0.96080800  1
  Sb  Sb14  1  0.53919200  0.53919200  0.53919200  1
  Sb  Sb15  1  0.96080800  0.46080800  0.03919200  1
  S  S16  1  0.99849200  0.24542000  0.38331900  1
  S  S17  1  0.11668100  0.00150800  0.74542000  1
  S  S18  1  0.24542000  0.38331900  0.99849200  1
  S  S19  1  0.25458000  0.61668100  0.49849200  1
  S  S20  1  0.38331900  0.99849200  0.24542000  1
  S  S21  1  0.50150800  0.75458000  0.88331900  1
  S  S22  1  0.49849200  0.25458000  0.61668100  1
  S  S23  1  0.61668100  0.49849200  0.25458000  1
  S  S24  1  0.74542000  0.11668100  0.00150800  1
  S  S25  1  0.75458000  0.88331900  0.50150800  1
  S  S26  1  0.88331900  0.50150800  0.75458000  1
  S  S27  1  0.00150800  0.74542000  0.11668100  1
