# generated using pymatgen
data_NaLiO
_symmetry_space_group_name_H-M   'P 1'
_cell_length_a   6.80054600
_cell_length_b   6.80054600
_cell_length_c   6.80054600
_cell_angle_alpha   96.44666151
_cell_angle_beta   96.44666151
_cell_angle_gamma   140.84526518
_symmetry_Int_Tables_number   1
_chemical_formula_structural   NaLiO
_chemical_formula_sum   'Na4 Li4 O4'
_cell_volume   187.10525023
_cell_formula_units_Z   4
loop_
 _symmetry_equiv_pos_site_id
 _symmetry_equiv_pos_as_xyz
  1  'x, y, z'
loop_
 _atom_site_type_symbol
 _atom_site_label
 _atom_site_symmetry_multiplicity
 _atom_site_fract_x
 _atom_site_fract_y
 _atom_site_fract_z
 _atom_site_occupancy
  Na  Na0  1  0.50000000  0.15802900  0.65802900  1
  Na  Na1  1  0.15802900  0.50000000  0.65802900  1
  Na  Na2  1  0.84197100  0.50000000  0.34197100  1
  Na  Na3  1  0.50000000  0.84197100  0.34197100  1
  Li  Li4  1  0.84972600  0.15027400  0.00000000  1
  Li  Li5  1  0.84972600  0.84972600  0.69945200  1
  Li  Li6  1  0.15027400  0.15027400  0.30054800  1
  Li  Li7  1  0.15027400  0.84972600  0.00000000  1
  O  O8  1  0.00000000  0.71870300  0.71870300  1
  O  O9  1  0.71870300  0.00000000  0.71870300  1
  O  O10  1  0.28129700  0.00000000  0.28129700  1
  O  O11  1  0.00000000  0.28129700  0.28129700  1
