# generated using pymatgen
data_Li3MnFeCo(PO4)3
_symmetry_space_group_name_H-M   'P 1'
_cell_length_a   10.47267200
_cell_length_b   6.08500400
_cell_length_c   14.29319900
_cell_angle_alpha   90.00000000
_cell_angle_beta   90.00000000
_cell_angle_gamma   90.00000000
_symmetry_Int_Tables_number   1
_chemical_formula_structural   Li3MnFeCo(PO4)3
_chemical_formula_sum   'Li12 Mn4 Fe4 Co4 P12 O48'
_cell_volume   910.85198722
_cell_formula_units_Z   4
loop_
 _symmetry_equiv_pos_site_id
 _symmetry_equiv_pos_as_xyz
  1  'x, y, z'
loop_
 _atom_site_type_symbol
 _atom_site_label
 _atom_site_symmetry_multiplicity
 _atom_site_fract_x
 _atom_site_fract_y
 _atom_site_fract_z
 _atom_site_occupancy
  Li  Li0  1  0.99897000  0.99878500  0.00068500  1
  Li  Li1  1  0.00115600  0.00101300  0.33305000  1
  Li  Li2  1  0.99951600  0.99940400  0.66648800  1
  Li  Li3  1  0.99897000  0.50121500  0.00068500  1
  Li  Li4  1  0.00115600  0.49898700  0.33305000  1
  Li  Li5  1  0.99951600  0.50059600  0.66648800  1
  Li  Li6  1  0.50048400  0.00059600  0.16648800  1
  Li  Li7  1  0.50103000  0.00121500  0.50068500  1
  Li  Li8  1  0.49884400  0.99898700  0.83305000  1
  Li  Li9  1  0.50048400  0.49940400  0.16648800  1
  Li  Li10  1  0.50103000  0.49878500  0.50068500  1
  Li  Li11  1  0.49884400  0.50101300  0.83305000  1
  Mn  Mn12  1  0.21836800  0.75000000  0.49384000  1
  Mn  Mn13  1  0.28163200  0.25000000  0.99384000  1
  Mn  Mn14  1  0.71931600  0.75000000  0.34029100  1
  Mn  Mn15  1  0.78068400  0.25000000  0.84029100  1
  Fe  Fe16  1  0.21990600  0.75000000  0.82518000  1
  Fe  Fe17  1  0.28009400  0.25000000  0.32518000  1
  Fe  Fe18  1  0.71807900  0.75000000  0.67418200  1
  Fe  Fe19  1  0.78192100  0.25000000  0.17418200  1
  Co  Co20  1  0.22056600  0.75000000  0.15888800  1
  Co  Co21  1  0.27943400  0.25000000  0.65888800  1
  Co  Co22  1  0.72156000  0.75000000  0.00698400  1
  Co  Co23  1  0.77844000  0.25000000  0.50698400  1
  P  P24  1  0.09349000  0.25000000  0.14081400  1
  P  P25  1  0.09378200  0.25000000  0.47190300  1
  P  P26  1  0.09560700  0.25000000  0.80521700  1
  P  P27  1  0.40439300  0.75000000  0.30521700  1
  P  P28  1  0.40651000  0.75000000  0.64081400  1
  P  P29  1  0.40621800  0.75000000  0.97190400  1
  P  P30  1  0.59610900  0.25000000  0.02816900  1
  P  P31  1  0.59429700  0.25000000  0.36168000  1
  P  P32  1  0.59280300  0.25000000  0.69252800  1
  P  P33  1  0.90719700  0.75000000  0.19252800  1
  P  P34  1  0.90389100  0.75000000  0.52816900  1
  P  P35  1  0.90570300  0.75000000  0.86168000  1
  O  O36  1  0.04463300  0.75000000  0.23355300  1
  O  O37  1  0.04116100  0.75000000  0.57058900  1
  O  O38  1  0.04452200  0.75000000  0.90104600  1
  O  O39  1  0.09643100  0.25000000  0.24794600  1
  O  O40  1  0.10099000  0.25000000  0.57960200  1
  O  O41  1  0.09643000  0.25000000  0.91253700  1
  O  O42  1  0.16382600  0.04539800  0.09682700  1
  O  O43  1  0.16362500  0.04799900  0.42624600  1
  O  O44  1  0.16768700  0.04777900  0.76122200  1
  O  O45  1  0.16382600  0.45460200  0.09682700  1
  O  O46  1  0.16362500  0.45200100  0.42624600  1
  O  O47  1  0.16768700  0.45222100  0.76122200  1
  O  O48  1  0.33231300  0.54777900  0.26122200  1
  O  O49  1  0.33617400  0.54539800  0.59682700  1
  O  O50  1  0.33637500  0.54799900  0.92624600  1
  O  O51  1  0.33231300  0.95222100  0.26122200  1
  O  O52  1  0.33617400  0.95460200  0.59682700  1
  O  O53  1  0.33637500  0.95200100  0.92624600  1
  O  O54  1  0.39901000  0.75000000  0.07960200  1
  O  O55  1  0.40357000  0.75000000  0.41253700  1
  O  O56  1  0.40356900  0.75000000  0.74794600  1
  O  O57  1  0.45883900  0.25000000  0.07058900  1
  O  O58  1  0.45547800  0.25000000  0.40104600  1
  O  O59  1  0.45536700  0.25000000  0.73355300  1
  O  O60  1  0.54098100  0.75000000  0.26285200  1
  O  O61  1  0.54341200  0.75000000  0.59860200  1
  O  O62  1  0.54479400  0.75000000  0.93321800  1
  O  O63  1  0.59880100  0.25000000  0.25413000  1
  O  O64  1  0.59761500  0.25000000  0.58497000  1
  O  O65  1  0.59637000  0.25000000  0.92072000  1
  O  O66  1  0.66657100  0.04589800  0.07171400  1
  O  O67  1  0.66439300  0.04849600  0.40720200  1
  O  O68  1  0.66360500  0.04704500  0.73684700  1
  O  O69  1  0.66657100  0.45410200  0.07171400  1
  O  O70  1  0.66439300  0.45150400  0.40720200  1
  O  O71  1  0.66360500  0.45295500  0.73684700  1
  O  O72  1  0.83639500  0.54704500  0.23684700  1
  O  O73  1  0.83342900  0.54589800  0.57171400  1
  O  O74  1  0.83560700  0.54849600  0.90720200  1
  O  O75  1  0.83639500  0.95295500  0.23684700  1
  O  O76  1  0.83342900  0.95410200  0.57171400  1
  O  O77  1  0.83560700  0.95150400  0.90720200  1
  O  O78  1  0.90238500  0.75000000  0.08497000  1
  O  O79  1  0.90363000  0.75000000  0.42072000  1
  O  O80  1  0.90119900  0.75000000  0.75413000  1
  O  O81  1  0.95658800  0.25000000  0.09860200  1
  O  O82  1  0.95520600  0.25000000  0.43321800  1
  O  O83  1  0.95901900  0.25000000  0.76285200  1
