# generated using pymatgen
data_Li2Cr5(Si2O5)6
_symmetry_space_group_name_H-M   'P 1'
_cell_length_a   10.22710600
_cell_length_b   10.25432417
_cell_length_c   14.69972006
_cell_angle_alpha   90.81026107
_cell_angle_beta   90.66670506
_cell_angle_gamma   119.76923892
_symmetry_Int_Tables_number   1
_chemical_formula_structural   Li2Cr5(Si2O5)6
_chemical_formula_sum   'Li4 Cr10 Si24 O60'
_cell_volume   1337.70664221
_cell_formula_units_Z   2
loop_
 _symmetry_equiv_pos_site_id
 _symmetry_equiv_pos_as_xyz
  1  'x, y, z'
loop_
 _atom_site_type_symbol
 _atom_site_label
 _atom_site_symmetry_multiplicity
 _atom_site_fract_x
 _atom_site_fract_y
 _atom_site_fract_z
 _atom_site_occupancy
  Li  Li0  1  0.33948200  0.66861300  0.00001400  1
  Li  Li1  1  0.99991900  0.00667400  0.25002700  1
  Li  Li2  1  0.00226600  0.00183600  0.75002800  1
  Li  Li3  1  0.66597700  0.33244000  0.50023900  1
  Cr  Cr4  1  0.50045900  0.99821600  0.24955100  1
  Cr  Cr5  1  0.50176000  0.00032600  0.74988600  1
  Cr  Cr6  1  0.33304200  0.66735200  0.74775800  1
  Cr  Cr7  1  0.33287000  0.66694000  0.25208200  1
  Cr  Cr8  1  0.49648000  0.49926700  0.75177100  1
  Cr  Cr9  1  0.49889500  0.49620800  0.25123800  1
  Cr  Cr10  1  0.66605200  0.33260200  0.75234700  1
  Cr  Cr11  1  0.66742900  0.33367800  0.24776600  1
  Cr  Cr12  1  0.99762600  0.50017400  0.74841300  1
  Cr  Cr13  1  0.00127900  0.50083200  0.24930600  1
  Si  Si14  1  0.23466700  0.88598200  0.38883200  1
  Si  Si15  1  0.23663100  0.88909400  0.60758900  1
  Si  Si16  1  0.11664300  0.76105600  0.89163000  1
  Si  Si17  1  0.11950800  0.76491300  0.11067600  1
  Si  Si18  1  0.65058100  0.88340100  0.88815600  1
  Si  Si19  1  0.65302300  0.88868200  0.10784300  1
  Si  Si20  1  0.64595900  0.76089900  0.60932400  1
  Si  Si21  1  0.64438200  0.76166400  0.39093600  1
  Si  Si22  1  0.11430000  0.35092400  0.61104900  1
  Si  Si23  1  0.10863800  0.34819000  0.39209900  1
  Si  Si24  1  0.76321700  0.64724000  0.89138100  1
  Si  Si25  1  0.76473200  0.65103500  0.11032100  1
  Si  Si26  1  0.23598200  0.34930400  0.89130200  1
  Si  Si27  1  0.23713100  0.35253600  0.11059300  1
  Si  Si28  1  0.88140600  0.64814900  0.38735800  1
  Si  Si29  1  0.88546200  0.64891100  0.60646500  1
  Si  Si30  1  0.35264200  0.23643400  0.61132500  1
  Si  Si31  1  0.34929700  0.23609300  0.39183600  1
  Si  Si32  1  0.34865800  0.10975500  0.89258100  1
  Si  Si33  1  0.35322900  0.11557900  0.11088000  1
  Si  Si34  1  0.88575900  0.23664200  0.88807400  1
  Si  Si35  1  0.88928700  0.23986200  0.10700800  1
  Si  Si36  1  0.76520100  0.11577900  0.61102000  1
  Si  Si37  1  0.76126400  0.11452500  0.39163900  1
  O  O38  1  0.22265200  0.94408400  0.14003900  1
  O  O39  1  0.21253900  0.93771100  0.86258900  1
  O  O40  1  0.05405800  0.77660500  0.36150900  1
  O  O41  1  0.05751200  0.78322500  0.63416600  1
  O  O42  1  0.25379500  0.88318000  0.49829600  1
  O  O43  1  0.34939900  0.84875600  0.65924500  1
  O  O44  1  0.34348900  0.84215700  0.33458400  1
  O  O45  1  0.14355300  0.74418400  0.00113600  1
  O  O46  1  0.49270600  0.83713800  0.83638600  1
  O  O47  1  0.49580900  0.84736600  0.15363400  1
  O  O48  1  0.72117800  0.94225300  0.63522100  1
  O  O49  1  0.71507600  0.94000300  0.36585800  1
  O  O50  1  0.16286300  0.65183800  0.83819300  1
  O  O51  1  0.16433200  0.65573500  0.16395500  1
  O  O52  1  0.61427100  0.86194400  0.99724600  1
  O  O53  1  0.61793600  0.73902900  0.49971500  1
  O  O54  1  0.14907700  0.50031300  0.34234100  1
  O  O55  1  0.15860400  0.50530000  0.66523500  1
  O  O56  1  0.72715600  0.78109600  0.85846400  1
  O  O57  1  0.72896300  0.78716200  0.14108400  1
  O  O58  1  0.49624000  0.65625200  0.66490900  1
  O  O59  1  0.49185700  0.65434600  0.33427800  1
  O  O60  1  0.77805700  0.71892400  0.63852000  1
  O  O61  1  0.77613200  0.72177100  0.35922600  1
  O  O62  1  0.11401300  0.36893200  0.50222900  1
  O  O63  1  0.34956800  0.51062000  0.16156200  1
  O  O64  1  0.35271100  0.50526300  0.84612400  1
  O  O65  1  0.94127200  0.71264900  0.86581400  1
  O  O66  1  0.94612400  0.72123000  0.13558800  1
  O  O67  1  0.24914200  0.38737800  0.00141800  1
  O  O68  1  0.74301800  0.62699500  0.00025500  1
  O  O69  1  0.05834000  0.27918400  0.85753100  1
  O  O70  1  0.06056400  0.27696100  0.14050400  1
  O  O71  1  0.65349000  0.49389800  0.83608900  1
  O  O72  1  0.65689000  0.50114600  0.16375400  1
  O  O73  1  0.86042300  0.60949700  0.49618900  1
  O  O74  1  0.22821100  0.28671900  0.63877300  1
  O  O75  1  0.21726700  0.27704800  0.36450300  1
  O  O76  1  0.51025600  0.34681900  0.66379700  1
  O  O77  1  0.50513000  0.35055000  0.34498200  1
  O  O78  1  0.27359600  0.21476700  0.86469700  1
  O  O79  1  0.28296800  0.22480200  0.13789900  1
  O  O80  1  0.84639200  0.49301900  0.65264300  1
  O  O81  1  0.83652000  0.49224200  0.33400800  1
  O  O82  1  0.39023600  0.25063100  0.50222300  1
  O  O83  1  0.37608100  0.11904900  0.00205100  1
  O  O84  1  0.83995500  0.34366600  0.83360900  1
  O  O85  1  0.84727100  0.35203500  0.15808700  1
  O  O86  1  0.27292000  0.06003700  0.64072600  1
  O  O87  1  0.27376600  0.05769400  0.35951400  1
  O  O88  1  0.49979800  0.14988400  0.84091700  1
  O  O89  1  0.50640400  0.16078700  0.16700700  1
  O  O90  1  0.88319300  0.25587200  0.99732700  1
  O  O91  1  0.65478600  0.16106300  0.66295800  1
  O  O92  1  0.64894500  0.15971100  0.34166200  1
  O  O93  1  0.74851400  0.14086600  0.50172000  1
  O  O94  1  0.94462700  0.21698000  0.64206500  1
  O  O95  1  0.93729000  0.21197900  0.35972700  1
  O  O96  1  0.77791800  0.05599400  0.86124800  1
  O  O97  1  0.78401300  0.06205100  0.13463300  1
