# generated using pymatgen
data_Li4Ti3O8
_symmetry_space_group_name_H-M   'P 1'
_cell_length_a   5.88760185
_cell_length_b   5.88760185
_cell_length_c   5.88760143
_cell_angle_alpha   60.21956440
_cell_angle_beta   60.21956440
_cell_angle_gamma   60.21956100
_symmetry_Int_Tables_number   1
_chemical_formula_structural   Li4Ti3O8
_chemical_formula_sum   'Li4 Ti3 O8'
_cell_volume   145.02866484
_cell_formula_units_Z   1
loop_
 _symmetry_equiv_pos_site_id
 _symmetry_equiv_pos_as_xyz
  1  'x, y, z'
loop_
 _atom_site_type_symbol
 _atom_site_label
 _atom_site_symmetry_multiplicity
 _atom_site_fract_x
 _atom_site_fract_y
 _atom_site_fract_z
 _atom_site_occupancy
  Li  Li0  1  0.50000000  0.50000000  0.00000000  1
  Li  Li1  1  0.50000000  0.00000000  0.50000000  1
  Li  Li2  1  0.00000000  0.00000000  0.00000000  1
  Li  Li3  1  0.00000000  0.50000000  0.50000000  1
  Ti  Ti4  1  0.50000000  0.00000000  0.00000000  1
  Ti  Ti5  1  0.00000000  0.50000000  0.00000000  1
  Ti  Ti6  1  0.00000000  0.00000000  0.50000000  1
  O  O7  1  0.24591700  0.24591700  0.24591700  1
  O  O8  1  0.21380800  0.75468300  0.75468300  1
  O  O9  1  0.24531700  0.24531700  0.78619200  1
  O  O10  1  0.24531700  0.78619200  0.24531700  1
  O  O11  1  0.75468300  0.21380800  0.75468300  1
  O  O12  1  0.75468300  0.75468300  0.21380800  1
  O  O13  1  0.78619200  0.24531700  0.24531700  1
  O  O14  1  0.75408300  0.75408300  0.75408300  1
