# generated using pymatgen
data_Li4Mn3Fe(BO3)4
_symmetry_space_group_name_H-M   'P 1'
_cell_length_a   5.23854300
_cell_length_b   5.25101069
_cell_length_c   20.93088917
_cell_angle_alpha   91.11298441
_cell_angle_beta   90.76029378
_cell_angle_gamma   119.79410817
_symmetry_Int_Tables_number   1
_chemical_formula_structural   Li4Mn3Fe(BO3)4
_chemical_formula_sum   'Li8 Mn6 Fe2 B8 O24'
_cell_volume   499.38499608
_cell_formula_units_Z   2
loop_
 _symmetry_equiv_pos_site_id
 _symmetry_equiv_pos_as_xyz
  1  'x, y, z'
loop_
 _atom_site_type_symbol
 _atom_site_label
 _atom_site_symmetry_multiplicity
 _atom_site_fract_x
 _atom_site_fract_y
 _atom_site_fract_z
 _atom_site_occupancy
  Li  Li0  1  0.34901400  0.32119400  0.66628300  1
  Li  Li1  1  0.32131000  0.34740400  0.91637400  1
  Li  Li2  1  0.34802700  0.32167300  0.16596000  1
  Li  Li3  1  0.32134000  0.34875400  0.41592500  1
  Li  Li4  1  0.66470900  0.65218200  0.79115900  1
  Li  Li5  1  0.65133300  0.66177300  0.54125900  1
  Li  Li6  1  0.66178000  0.65316300  0.29155800  1
  Li  Li7  1  0.65127400  0.66208500  0.04124400  1
  Mn  Mn8  1  0.99611600  0.32932800  0.55857400  1
  Mn  Mn9  1  0.99347400  0.32653200  0.05889300  1
  Mn  Mn10  1  0.99953000  0.67837700  0.93293400  1
  Mn  Mn11  1  0.99757200  0.67665100  0.43335900  1
  Mn  Mn12  1  0.67537900  0.99802500  0.68432800  1
  Mn  Mn13  1  0.33041200  0.99606900  0.30750400  1
  Fe  Fe14  1  0.68227100  0.99489700  0.18373400  1
  Fe  Fe15  1  0.32425000  0.99969700  0.80862200  1
  B  B16  1  0.65947700  0.00349900  0.93643500  1
  B  B17  1  0.65858900  0.00279500  0.43699600  1
  B  B18  1  0.99408800  0.33190000  0.81184300  1
  B  B19  1  0.99642300  0.33465200  0.31148100  1
  B  B20  1  0.00233000  0.65938200  0.68780400  1
  B  B21  1  0.00337100  0.66080700  0.18683900  1
  B  B22  1  0.33442600  0.99529000  0.56216100  1
  B  B23  1  0.33367500  0.99413900  0.06281400  1
  O  O24  1  0.74541900  0.06819200  0.79271800  1
  O  O25  1  0.75401700  0.07023100  0.29032400  1
  O  O26  1  0.93048700  0.25378200  0.95183800  1
  O  O27  1  0.42154300  0.03375900  0.91586900  1
  O  O28  1  0.93041500  0.25327000  0.45208500  1
  O  O29  1  0.42120800  0.03373900  0.41630800  1
  O  O30  1  0.97315800  0.58146100  0.82621500  1
  O  O31  1  0.35932700  0.26914000  0.56944100  1
  O  O32  1  0.96244800  0.57750400  0.32679200  1
  O  O33  1  0.35866900  0.26847900  0.06963500  1
  O  O34  1  0.26777000  0.34914400  0.81817200  1
  O  O35  1  0.27034500  0.35891100  0.31906200  1
  O  O36  1  0.72674300  0.62997200  0.69469300  1
  O  O37  1  0.72857200  0.63969900  0.19371700  1
  O  O38  1  0.62945100  0.72835800  0.94378800  1
  O  O39  1  0.03351300  0.42204100  0.66700200  1
  O  O40  1  0.62868200  0.72783200  0.44421600  1
  O  O41  1  0.02220700  0.41527400  0.16801700  1
  O  O42  1  0.57748300  0.96181600  0.57759300  1
  O  O43  1  0.57723600  0.96142300  0.07833300  1
  O  O44  1  0.06954700  0.75266800  0.54105700  1
  O  O45  1  0.06975900  0.75167900  0.04143200  1
  O  O46  1  0.25261800  0.93074600  0.70319800  1
  O  O47  1  0.25801300  0.92940900  0.20061500  1
