# generated using pymatgen
data_Li2FeOF3
_symmetry_space_group_name_H-M   'P 1'
_cell_length_a   5.95473232
_cell_length_b   5.98694442
_cell_length_c   8.53103091
_cell_angle_alpha   89.99996215
_cell_angle_beta   91.20105345
_cell_angle_gamma   89.99994592
_symmetry_Int_Tables_number   1
_chemical_formula_structural   Li2FeOF3
_chemical_formula_sum   'Li8 Fe4 O4 F12'
_cell_volume   304.06998989
_cell_formula_units_Z   4
loop_
 _symmetry_equiv_pos_site_id
 _symmetry_equiv_pos_as_xyz
  1  'x, y, z'
loop_
 _atom_site_type_symbol
 _atom_site_label
 _atom_site_symmetry_multiplicity
 _atom_site_fract_x
 _atom_site_fract_y
 _atom_site_fract_z
 _atom_site_occupancy
  Li  Li0  1  0.25000800  0.24999800  0.25000500  1
  Li  Li1  1  0.75000800  0.74999700  0.75000500  1
  Li  Li2  1  0.75000200  0.24999800  0.25000300  1
  Li  Li3  1  0.25000200  0.74999600  0.75000400  1
  Li  Li4  1  0.46761700  0.74999500  0.37399100  1
  Li  Li5  1  0.96762200  0.24999600  0.87399200  1
  Li  Li6  1  0.03239700  0.74999600  0.12602300  1
  Li  Li7  1  0.53239100  0.24999700  0.62602300  1
  Fe  Fe8  1  0.99999500  0.50005100  0.50003200  1
  Fe  Fe9  1  0.50004100  0.49992500  0.99993100  1
  Fe  Fe10  1  0.49991000  0.00005000  0.99991300  1
  Fe  Fe11  1  0.99996800  0.00005500  0.49999000  1
  O  O12  1  0.80227700  0.24999300  0.49531500  1
  O  O13  1  0.30229700  0.75000000  0.99530500  1
  O  O14  1  0.69771200  0.24999500  0.00469700  1
  O  O15  1  0.19768700  0.74999800  0.50470400  1
  F  F16  1  0.25208100  0.24999100  0.49577300  1
  F  F17  1  0.75207900  0.75000300  0.99577100  1
  F  F18  1  0.24793300  0.24999100  0.00423600  1
  F  F19  1  0.74793300  0.75000000  0.50424100  1
  F  F20  1  0.00535200  0.48733300  0.26163700  1
  F  F21  1  0.50535200  0.98733600  0.76163500  1
  F  F22  1  0.00535300  0.01265900  0.26163800  1
  F  F23  1  0.50535600  0.51265900  0.76163100  1
  F  F24  1  0.49465800  0.48733400  0.23837300  1
  F  F25  1  0.99465700  0.98733700  0.73837700  1
  F  F26  1  0.49465700  0.01265800  0.23837200  1
  F  F27  1  0.99465500  0.51265700  0.73838000  1
