# generated using pymatgen
data_Li3Mn4(BO3)4
_symmetry_space_group_name_H-M   'P 1'
_cell_length_a   5.28492500
_cell_length_b   9.13789242
_cell_length_c   11.61330050
_cell_angle_alpha   113.04390967
_cell_angle_beta   101.37420696
_cell_angle_gamma   90.04958420
_symmetry_Int_Tables_number   1
_chemical_formula_structural   Li3Mn4(BO3)4
_chemical_formula_sum   'Li6 Mn8 B8 O24'
_cell_volume   504.05594383
_cell_formula_units_Z   2
loop_
 _symmetry_equiv_pos_site_id
 _symmetry_equiv_pos_as_xyz
  1  'x, y, z'
loop_
 _atom_site_type_symbol
 _atom_site_label
 _atom_site_symmetry_multiplicity
 _atom_site_fract_x
 _atom_site_fract_y
 _atom_site_fract_z
 _atom_site_occupancy
  Li  Li0  1  0.08503400  0.90894400  0.83401800  1
  Li  Li1  1  0.30174800  0.18460200  0.32948500  1
  Li  Li2  1  0.57551800  0.40733300  0.83963500  1
  Li  Li3  1  0.39076400  0.55473400  0.09183200  1
  Li  Li4  1  0.66624500  0.80639200  0.64791100  1
  Li  Li5  1  0.82453600  0.67008100  0.32796500  1
  Mn  Mn6  1  0.09067500  0.59773700  0.86720500  1
  Mn  Mn7  1  0.16117400  0.98088900  0.61467700  1
  Mn  Mn8  1  0.34615600  0.54054000  0.38037900  1
  Mn  Mn9  1  0.59688500  0.09482900  0.87263500  1
  Mn  Mn10  1  0.38470300  0.90995300  0.11209300  1
  Mn  Mn11  1  0.65166400  0.46131500  0.61427400  1
  Mn  Mn12  1  0.82720400  0.00321000  0.36237800  1
  Mn  Mn13  1  0.91119900  0.37431900  0.12386400  1
  B  B14  1  0.11904800  0.27133000  0.88526900  1
  B  B15  1  0.15203500  0.64723600  0.62863000  1
  B  B16  1  0.35109700  0.86002300  0.36350600  1
  B  B17  1  0.59583500  0.76192800  0.86719700  1
  B  B18  1  0.38665000  0.25327200  0.12859000  1
  B  B19  1  0.66160400  0.12884600  0.62229300  1
  B  B20  1  0.82975200  0.33981700  0.36057900  1
  B  B21  1  0.90014400  0.72820000  0.13162500  1
  O  O22  1  0.02889900  0.78386900  0.63846300  1
  O  O23  1  0.05008700  0.53636000  0.66417600  1
  O  O24  1  0.18945500  0.11698100  0.82738400  1
  O  O25  1  0.26167600  0.40417900  0.89895600  1
  O  O26  1  0.10753100  0.86278900  0.39576600  1
  O  O27  1  0.36140300  0.79906200  0.90877800  1
  O  O28  1  0.12544200  0.71701500  0.08539300  1
  O  O29  1  0.38407100  0.62532900  0.58345100  1
  O  O30  1  0.26437800  0.13442200  0.14343400  1
  O  O31  1  0.29220200  0.40672600  0.16405500  1
  O  O32  1  0.56736800  0.01597700  0.66110000  1
  O  O33  1  0.43418100  0.98329500  0.33283500  1
  O  O34  1  0.58474100  0.27790300  0.66401700  1
  O  O35  1  0.68224500  0.61191200  0.84260800  1
  O  O36  1  0.50226100  0.74025400  0.36673800  1
  O  O37  1  0.73274100  0.87576100  0.84753000  1
  O  O38  1  0.59866700  0.37040300  0.40335000  1
  O  O39  1  0.88898700  0.28829800  0.93405300  1
  O  O40  1  0.60306800  0.23057900  0.07476900  1
  O  O41  1  0.84918900  0.08336500  0.54650700  1
  O  O42  1  0.78921100  0.87725500  0.17635900  1
  O  O43  1  0.77867600  0.59893100  0.13819900  1
  O  O44  1  0.92942300  0.45064600  0.31565800  1
  O  O45  1  0.96006900  0.21283200  0.35972500  1
