# generated using pymatgen
data_Li3MnV(PO4)3
_symmetry_space_group_name_H-M   'P 1'
_cell_length_a   9.23194430
_cell_length_b   8.41751753
_cell_length_c   8.44307955
_cell_angle_alpha   60.06107506
_cell_angle_beta   63.05114699
_cell_angle_gamma   90.14924220
_symmetry_Int_Tables_number   1
_chemical_formula_structural   Li3MnV(PO4)3
_chemical_formula_sum   'Li6 Mn2 V2 P6 O24'
_cell_volume   484.08089495
_cell_formula_units_Z   2
loop_
 _symmetry_equiv_pos_site_id
 _symmetry_equiv_pos_as_xyz
  1  'x, y, z'
loop_
 _atom_site_type_symbol
 _atom_site_label
 _atom_site_symmetry_multiplicity
 _atom_site_fract_x
 _atom_site_fract_y
 _atom_site_fract_z
 _atom_site_occupancy
  Li  Li0  1  0.13519243  0.74017915  0.19437976  1
  Li  Li1  1  0.14803434  0.33758076  0.92620430  1
  Li  Li2  1  0.38393111  0.18604106  0.36180738  1
  Li  Li3  1  0.85668643  0.66870357  0.07232510  1
  Li  Li4  1  0.87642876  0.93456046  0.38785727  1
  Li  Li5  1  0.87317237  0.25374616  0.80303984  1
  Mn  Mn6  1  0.56303071  0.85209896  0.29549396  1
  Mn  Mn7  1  0.43982049  0.14470220  0.70908393  1
  V  V8  1  0.03442861  0.34269693  0.31701198  1
  V  V9  1  0.96709369  0.65271916  0.69169980  1
  P  P10  1  0.24668953  0.05458085  0.21151694  1
  P  P11  1  0.24895611  0.45596839  0.49201773  1
  P  P12  1  0.24177186  0.73901390  0.80837900  1
  P  P13  1  0.76072136  0.25697293  0.19104319  1
  P  P14  1  0.75711731  0.54502231  0.50489771  1
  P  P15  1  0.75245601  0.94938764  0.78274403  1
  O  O16  1  0.10714628  0.85042250  0.36581073  1
  O  O17  1  0.25644359  0.14239137  0.99747142  1
  O  O18  1  0.18224579  0.18135150  0.30300164  1
  O  O19  1  0.17032450  0.49003297  0.34916582  1
  O  O20  1  0.10133123  0.45390491  0.69215256  1
  O  O21  1  0.09991886  0.76595962  0.74260862  1
  O  O22  1  0.41117181  0.04030185  0.20969636  1
  O  O23  1  0.27249811  0.25604527  0.57993215  1
  O  O24  1  0.40757158  0.61761459  0.36599814  1
  O  O25  1  0.17223108  0.51983842  0.00120441  1
  O  O26  1  0.23636188  0.86298498  0.89309915  1
  O  O27  1  0.40769169  0.78221929  0.61814065  1
  O  O28  1  0.58840858  0.21391896  0.37806863  1
  O  O29  1  0.75781931  0.13654109  0.10356197  1
  O  O30  1  0.82417090  0.47709621  0.00953523  1
  O  O31  1  0.59408705  0.38907690  0.63424934  1
  O  O32  1  0.74840395  0.75111991  0.39468090  1
  O  O33  1  0.58383299  0.96415748  0.80205816  1
  O  O34  1  0.89985659  0.21208095  0.25735070  1
  O  O35  1  0.90145275  0.53642237  0.31354791  1
  O  O36  1  0.83256595  0.51749434  0.65127994  1
  O  O37  1  0.83176887  0.83668246  0.67790704  1
  O  O38  1  0.75482537  0.86858436  0.98828667  1
  O  O39  1  0.88441516  0.16573430  0.61738192  1
