# generated using pymatgen
data_LiLa5Ti8O24
_symmetry_space_group_name_H-M   'P 1'
_cell_length_a   8.70633216
_cell_length_b   8.70633216
_cell_length_c   8.76476493
_cell_angle_alpha   66.62453514
_cell_angle_beta   66.62453514
_cell_angle_gamma   53.17564950
_symmetry_Int_Tables_number   1
_chemical_formula_structural   LiLa5Ti8O24
_chemical_formula_sum   'Li1 La5 Ti8 O24'
_cell_volume   476.60520132
_cell_formula_units_Z   1
loop_
 _symmetry_equiv_pos_site_id
 _symmetry_equiv_pos_as_xyz
  1  'x, y, z'
loop_
 _atom_site_type_symbol
 _atom_site_label
 _atom_site_symmetry_multiplicity
 _atom_site_fract_x
 _atom_site_fract_y
 _atom_site_fract_z
 _atom_site_occupancy
  Li  Li0  1  0.50755000  0.50755000  0.00038400  1
  La  La1  1  0.37714000  0.37714000  0.50131200  1
  La  La2  1  0.12453800  0.12453800  0.49806700  1
  La  La3  1  0.87212800  0.87212800  0.50215500  1
  La  La4  1  0.75121400  0.75121400  0.00020600  1
  La  La5  1  0.62647700  0.62647700  0.49852000  1
  Ti  Ti6  1  0.56339900  0.06983200  0.23988900  1
  Ti  Ti7  1  0.68394500  0.18964400  0.76021800  1
  Ti  Ti8  1  0.18964400  0.68394500  0.76021800  1
  Ti  Ti9  1  0.93876500  0.42889400  0.75962000  1
  Ti  Ti10  1  0.81848200  0.30864800  0.24021800  1
  Ti  Ti11  1  0.06983200  0.56339900  0.23988900  1
  Ti  Ti12  1  0.42889400  0.93876500  0.75962000  1
  Ti  Ti13  1  0.30864800  0.81848200  0.24021800  1
  O  O14  1  0.67563600  0.18994000  0.26822200  1
  O  O15  1  0.63044300  0.10782900  0.99998800  1
  O  O16  1  0.57604500  0.05512300  0.73562600  1
  O  O17  1  0.30587300  0.30587300  0.27496100  1
  O  O18  1  0.05720400  0.05720400  0.27322300  1
  O  O19  1  0.19557100  0.19557100  0.72277000  1
  O  O20  1  0.44260300  0.44260300  0.73246600  1
  O  O21  1  0.92482400  0.44184200  0.26456200  1
  O  O22  1  0.84762500  0.40842400  0.00003700  1
  O  O23  1  0.18994000  0.67563600  0.26822200  1
  O  O24  1  0.81520900  0.31922500  0.73108500  1
  O  O25  1  0.05512300  0.57604500  0.73562600  1
  O  O26  1  0.10782900  0.63044300  0.99998800  1
  O  O27  1  0.99346800  0.50617500  0.49970100  1
  O  O28  1  0.74813700  0.25077700  0.50025200  1
  O  O29  1  0.93728800  0.93728800  0.73259800  1
  O  O30  1  0.56154900  0.56154900  0.26765100  1
  O  O31  1  0.80478300  0.80478300  0.26156200  1
  O  O32  1  0.69373300  0.69373300  0.73528900  1
  O  O33  1  0.50617500  0.99346800  0.49970100  1
  O  O34  1  0.44184200  0.92482400  0.26456200  1
  O  O35  1  0.25077700  0.74813700  0.50025200  1
  O  O36  1  0.40842400  0.84762500  0.00003700  1
  O  O37  1  0.31922500  0.81520900  0.73108500  1
