# generated using pymatgen
data_Li6Mn2O5F2
_symmetry_space_group_name_H-M   'P 1'
_cell_length_a   6.01876300
_cell_length_b   5.12255500
_cell_length_c   10.01517397
_cell_angle_alpha   72.11462636
_cell_angle_beta   90.00000000
_cell_angle_gamma   90.00000000
_symmetry_Int_Tables_number   1
_chemical_formula_structural   Li6Mn2O5F2
_chemical_formula_sum   'Li12 Mn4 O10 F4'
_cell_volume   293.85970804
_cell_formula_units_Z   2
loop_
 _symmetry_equiv_pos_site_id
 _symmetry_equiv_pos_as_xyz
  1  'x, y, z'
loop_
 _atom_site_type_symbol
 _atom_site_label
 _atom_site_symmetry_multiplicity
 _atom_site_fract_x
 _atom_site_fract_y
 _atom_site_fract_z
 _atom_site_occupancy
  Li  Li0  1  0.04370700  0.20384500  0.13683600  1
  Li  Li1  1  0.49095600  0.23539800  0.14225000  1
  Li  Li2  1  0.76358400  0.81759500  0.13110500  1
  Li  Li3  1  0.97114300  0.78205500  0.36733900  1
  Li  Li4  1  0.53196700  0.77174800  0.35009900  1
  Li  Li5  1  0.22564600  0.17492200  0.36917600  1
  Li  Li6  1  0.23641600  0.81759500  0.63110500  1
  Li  Li7  1  0.95629300  0.20384500  0.63683600  1
  Li  Li8  1  0.50904400  0.23539800  0.64225000  1
  Li  Li9  1  0.77435400  0.17492200  0.86917600  1
  Li  Li10  1  0.02885700  0.78205500  0.86733900  1
  Li  Li11  1  0.46803300  0.77174800  0.85009900  1
  Mn  Mn12  1  0.27560200  0.73484200  0.12754200  1
  Mn  Mn13  1  0.73933800  0.26733700  0.37020300  1
  Mn  Mn14  1  0.72439800  0.73484200  0.62754200  1
  Mn  Mn15  1  0.26066200  0.26733700  0.87020300  1
  O  O16  1  0.26357400  0.49912300  0.00025300  1
  O  O17  1  0.05355000  0.98992500  0.00413300  1
  O  O18  1  0.26311600  0.94858100  0.25220700  1
  O  O19  1  0.76061300  0.05120300  0.24795500  1
  O  O20  1  0.53630500  0.52296800  0.23336300  1
  O  O21  1  0.94645000  0.98992500  0.50413300  1
  O  O22  1  0.73642600  0.49912300  0.50025300  1
  O  O23  1  0.46369500  0.52296800  0.73336300  1
  O  O24  1  0.73688400  0.94858100  0.75220700  1
  O  O25  1  0.23938700  0.05120300  0.74795500  1
  F  F26  1  0.03674400  0.47742100  0.27063900  1
  F  F27  1  0.45185200  0.02303300  0.49690100  1
  F  F28  1  0.96325600  0.47742100  0.77063900  1
  F  F29  1  0.54814800  0.02303300  0.99690100  1
