# generated using pymatgen
data_LiVCrP2(HO5)2
_symmetry_space_group_name_H-M   'P 1'
_cell_length_a   5.20819800
_cell_length_b   7.36767179
_cell_length_c   10.47123529
_cell_angle_alpha   104.86732358
_cell_angle_beta   96.63281394
_cell_angle_gamma   109.77003440
_symmetry_Int_Tables_number   1
_chemical_formula_structural   LiVCrP2(HO5)2
_chemical_formula_sum   'Li2 V2 Cr2 P4 H4 O20'
_cell_volume   356.30979947
_cell_formula_units_Z   2
loop_
 _symmetry_equiv_pos_site_id
 _symmetry_equiv_pos_as_xyz
  1  'x, y, z'
loop_
 _atom_site_type_symbol
 _atom_site_label
 _atom_site_symmetry_multiplicity
 _atom_site_fract_x
 _atom_site_fract_y
 _atom_site_fract_z
 _atom_site_occupancy
  Li  Li0  1  0.57561900  0.64765100  0.79240400  1
  Li  Li1  1  0.42438100  0.35234900  0.20759600  1
  V  V2  1  0.00000000  0.50000000  0.00000000  1
  V  V3  1  0.50000000  0.00000000  0.50000000  1
  Cr  Cr4  1  0.00000000  0.00000000  0.00000000  1
  Cr  Cr5  1  0.50000000  0.50000000  0.50000000  1
  P  P6  1  0.49875500  0.04642300  0.82347500  1
  P  P7  1  0.99722100  0.44590200  0.67527700  1
  P  P8  1  0.00277900  0.55409800  0.32472300  1
  P  P9  1  0.50124500  0.95357700  0.17652500  1
  H  H10  1  0.32323200  0.31483500  0.96809100  1
  H  H11  1  0.16432200  0.17557300  0.51322200  1
  H  H12  1  0.83567800  0.82442700  0.48677800  1
  H  H13  1  0.67676800  0.68516500  0.03190900  1
  O  O14  1  0.82287800  0.69639500  0.97835400  1
  O  O15  1  0.63791700  0.28208100  0.90393400  1
  O  O16  1  0.11670700  0.48218900  0.82839500  1
  O  O17  1  0.24708400  0.95054200  0.87878200  1
  O  O18  1  0.71125600  0.94532500  0.83704300  1
  O  O19  1  0.77580200  0.53950900  0.66625000  1
  O  O20  1  0.25671400  0.55519400  0.62635000  1
  O  O21  1  0.39965600  0.02046400  0.67246800  1
  O  O22  1  0.87742500  0.21522500  0.59409200  1
  O  O23  1  0.34418600  0.20354600  0.48469900  1
  O  O24  1  0.65581400  0.79645400  0.51530100  1
  O  O25  1  0.12257500  0.78477500  0.40590800  1
  O  O26  1  0.60034400  0.97953600  0.32753200  1
  O  O27  1  0.74328600  0.44480600  0.37365000  1
  O  O28  1  0.22419800  0.46049100  0.33375000  1
  O  O29  1  0.28874400  0.05467500  0.16295700  1
  O  O30  1  0.75291600  0.04945800  0.12121800  1
  O  O31  1  0.88329300  0.51781100  0.17160500  1
  O  O32  1  0.36208300  0.71791900  0.09606600  1
  O  O33  1  0.17712200  0.30360500  0.02164600  1
