# generated using pymatgen
data_Li9V3P8O29
_symmetry_space_group_name_H-M   'P 1'
_cell_length_a   9.88179400
_cell_length_b   9.91833659
_cell_length_c   13.75962806
_cell_angle_alpha   89.93209044
_cell_angle_beta   89.87855539
_cell_angle_gamma   60.13905632
_symmetry_Int_Tables_number   1
_chemical_formula_structural   Li9V3P8O29
_chemical_formula_sum   'Li18 V6 P16 O58'
_cell_volume   1169.54739144
_cell_formula_units_Z   2
loop_
 _symmetry_equiv_pos_site_id
 _symmetry_equiv_pos_as_xyz
  1  'x, y, z'
loop_
 _atom_site_type_symbol
 _atom_site_label
 _atom_site_symmetry_multiplicity
 _atom_site_fract_x
 _atom_site_fract_y
 _atom_site_fract_z
 _atom_site_occupancy
  Li  Li0  1  0.10071400  0.23022100  0.06812100  1
  Li  Li1  1  0.09279900  0.67422500  0.56221200  1
  Li  Li2  1  0.34534900  0.31649500  0.37375400  1
  Li  Li3  1  0.33304200  0.33588300  0.88336500  1
  Li  Li4  1  0.23711600  0.66182900  0.06425800  1
  Li  Li5  1  0.66490200  0.09675900  0.07365800  1
  Li  Li6  1  0.33520200  0.76393700  0.43400100  1
  Li  Li7  1  0.67368400  0.23146800  0.56080900  1
  Li  Li8  1  0.33054200  0.90191300  0.94031100  1
  Li  Li9  1  0.76646200  0.33139700  0.93959200  1
  Li  Li10  1  0.66790000  0.66380100  0.61808700  1
  Li  Li11  1  0.66515300  0.68973300  0.12341600  1
  Li  Li12  1  0.56710100  0.99910500  0.24886700  1
  Li  Li13  1  0.89534800  0.33582500  0.43125200  1
  Li  Li14  1  0.76126300  0.90099700  0.42343800  1
  Li  Li15  1  0.90391600  0.76624500  0.94008200  1
  Li  Li16  1  0.00180600  0.99395000  0.01155300  1
  Li  Li17  1  0.98487700  0.99152500  0.48570800  1
  V  V18  1  0.25705400  0.11320200  0.55044300  1
  V  V19  1  0.43544300  0.56526800  0.24996800  1
  V  V20  1  0.56786500  0.43499900  0.74905500  1
  V  V21  1  0.43925000  0.99552000  0.75629300  1
  V  V22  1  0.99930700  0.43653200  0.24903000  1
  V  V23  1  0.99914500  0.56731800  0.75165600  1
  P  P24  1  0.09092100  0.22734400  0.84597000  1
  P  P25  1  0.22424800  0.09216700  0.34188400  1
  P  P26  1  0.09002800  0.68399500  0.34375700  1
  P  P27  1  0.33355900  0.33830500  0.12428500  1
  P  P28  1  0.33111400  0.33359400  0.62475000  1
  P  P29  1  0.22785100  0.68423900  0.84331400  1
  P  P30  1  0.31649400  0.77380800  0.65439800  1
  P  P31  1  0.68636000  0.08914300  0.84593700  1
  P  P32  1  0.31884400  0.90780100  0.15439700  1
  P  P33  1  0.68334200  0.22540200  0.34538900  1
  P  P34  1  0.77338300  0.31516700  0.15661600  1
  P  P35  1  0.66853000  0.66125400  0.37672200  1
  P  P36  1  0.66869400  0.66393900  0.87829500  1
  P  P37  1  0.91379400  0.31651200  0.65698400  1
  P  P38  1  0.77316600  0.91180100  0.65486200  1
  P  P39  1  0.91055100  0.77496100  0.15462400  1
  O  O40  1  0.01032800  0.22883600  0.56797500  1
  O  O41  1  0.07120600  0.24937500  0.34101600  1
  O  O42  1  0.21693700  0.99860500  0.06706500  1
  O  O43  1  0.25053900  0.07840200  0.84694500  1
  O  O44  1  0.11162900  0.37045300  0.83272500  1
  O  O45  1  0.18727100  0.33206100  0.16398200  1
  O  O46  1  0.10715900  0.52239700  0.33812900  1
  O  O47  1  0.01121800  0.76418800  0.06645500  1
  O  O48  1  0.07832000  0.67396100  0.84351300  1
  O  O49  1  0.32617300  0.19218900  0.67445200  1
  O  O50  1  0.36667900  0.11036600  0.34274200  1
  O  O51  1  0.18902400  0.48797600  0.65938200  1
  O  O52  1  0.31456800  0.36837100  0.01544500  1
  O  O53  1  0.31935300  0.30572000  0.51606500  1
  O  O54  1  0.32855000  0.49049700  0.17182400  1
  O  O55  1  0.52168500  0.10892200  0.83754500  1
  O  O56  1  0.48327000  0.19730100  0.15593500  1
  O  O57  1  0.25406700  0.66807900  0.34522500  1
  O  O58  1  0.21476000  0.78897500  0.74938000  1
  O  O59  1  0.22930300  0.76692700  0.56565600  1
  O  O60  1  0.23467800  0.76986100  0.93260700  1
  O  O61  1  0.37059100  0.52013000  0.82916400  1
  O  O62  1  0.48497600  0.32998400  0.65207300  1
  O  O63  1  0.32565500  0.74756200  0.15862400  1
  O  O64  1  0.52034900  0.37613100  0.33340600  1
  O  O65  1  0.66600700  0.08412700  0.34871200  1
  O  O66  1  0.21632800  0.99927500  0.24909500  1
  O  O67  1  0.21661900  0.99797300  0.43078700  1
  O  O68  1  0.77496400  0.00226300  0.56603800  1
  O  O69  1  0.32749100  0.92430300  0.65242900  1
  O  O70  1  0.48143200  0.63374000  0.66773600  1
  O  O71  1  0.67286000  0.25027900  0.84354800  1
  O  O72  1  0.51562300  0.66481100  0.32925700  1
  O  O73  1  0.62450400  0.47784700  0.16721200  1
  O  O74  1  0.77081200  0.22504100  0.06757900  1
  O  O75  1  0.77223500  0.23492900  0.43412100  1
  O  O76  1  0.78658100  0.21495800  0.25125300  1
  O  O77  1  0.75456900  0.32513500  0.65421500  1
  O  O78  1  0.51517700  0.80891000  0.83965000  1
  O  O79  1  0.47863400  0.88986700  0.15838300  1
  O  O80  1  0.67623500  0.51283400  0.83707600  1
  O  O81  1  0.66964700  0.66052600  0.98758100  1
  O  O82  1  0.65170100  0.64735400  0.48569800  1
  O  O83  1  0.81088900  0.50901600  0.33738700  1
  O  O84  1  0.62641700  0.89497700  0.66395500  1
  O  O85  1  0.67419300  0.80405600  0.34490600  1
  O  O86  1  0.91853700  0.33184300  0.15381900  1
  O  O87  1  0.00226600  0.21396500  0.75067100  1
  O  O88  1  0.99635300  0.23300900  0.93431400  1
  O  O89  1  0.89161300  0.48052900  0.66690600  1
  O  O90  1  0.81127800  0.67540200  0.83831900  1
  O  O91  1  0.89425900  0.62807800  0.16699000  1
  O  O92  1  0.75358200  0.91886900  0.15284600  1
  O  O93  1  0.77849000  0.99656600  0.93361200  1
  O  O94  1  0.78424000  0.00065300  0.74971100  1
  O  O95  1  0.91978100  0.75003100  0.65586100  1
  O  O96  1  0.99810100  0.77972700  0.43240800  1
  O  O97  1  0.00447400  0.78425700  0.24947700  1
