# generated using pymatgen
data_Li4Nb3V3Cr2O16
_symmetry_space_group_name_H-M   'P 1'
_cell_length_a   6.03979464
_cell_length_b   6.03676020
_cell_length_c   9.80421333
_cell_angle_alpha   89.99929212
_cell_angle_beta   89.27687583
_cell_angle_gamma   119.98246127
_symmetry_Int_Tables_number   1
_chemical_formula_structural   Li4Nb3V3Cr2O16
_chemical_formula_sum   'Li4 Nb3 V3 Cr2 O16'
_cell_volume   309.59936277
_cell_formula_units_Z   1
loop_
 _symmetry_equiv_pos_site_id
 _symmetry_equiv_pos_as_xyz
  1  'x, y, z'
loop_
 _atom_site_type_symbol
 _atom_site_label
 _atom_site_symmetry_multiplicity
 _atom_site_fract_x
 _atom_site_fract_y
 _atom_site_fract_z
 _atom_site_occupancy
  Li  Li0  1  0.33314600  0.66658500  0.89785400  1
  Li  Li1  1  0.01594900  0.00798900  0.99368600  1
  Li  Li2  1  0.01743000  0.00873000  0.49530900  1
  Li  Li3  1  0.66886300  0.33443200  0.38686200  1
  Nb  Nb4  1  0.66275700  0.83139500  0.21368500  1
  Nb  Nb5  1  0.82295200  0.64873200  0.71244900  1
  Nb  Nb6  1  0.82293500  0.17423000  0.71245800  1
  V  V7  1  0.17297000  0.83196700  0.21273100  1
  V  V8  1  0.17296600  0.34101800  0.21272400  1
  V  V9  1  0.34643500  0.17322800  0.71184300  1
  Cr  Cr10  1  0.32250600  0.66123900  0.48148400  1
  Cr  Cr11  1  0.66050200  0.33027100  0.98969400  1
  O  O12  1  0.15208900  0.82016200  0.60060300  1
  O  O13  1  0.04147400  0.52074700  0.33712800  1
  O  O14  1  0.34624800  0.67315100  0.10014600  1
  O  O15  1  0.99580800  0.99790500  0.31344200  1
  O  O16  1  0.99565100  0.99783200  0.81037400  1
  O  O17  1  0.15208400  0.33193400  0.60060600  1
  O  O18  1  0.48344600  0.95973000  0.34176000  1
  O  O19  1  0.48343500  0.52371000  0.34175300  1
  O  O20  1  0.32512700  0.16258800  0.10280200  1
  O  O21  1  0.66271900  0.83136900  0.60118600  1
  O  O22  1  0.52729800  0.48806600  0.84707500  1
  O  O23  1  0.52730200  0.03926600  0.84707900  1
  O  O24  1  0.66783400  0.33393500  0.58599700  1
  O  O25  1  0.82880400  0.66867700  0.10320600  1
  O  O26  1  0.96246200  0.48124000  0.85068300  1
  O  O27  1  0.82880300  0.16017200  0.10321800  1
