# generated using pymatgen
data_Li2FePCO7
_symmetry_space_group_name_H-M   'P 1'
_cell_length_a   6.49056900
_cell_length_b   8.34698300
_cell_length_c   10.19444289
_cell_angle_alpha   85.00471222
_cell_angle_beta   90.00000000
_cell_angle_gamma   90.00000000
_symmetry_Int_Tables_number   1
_chemical_formula_structural   Li2FePCO7
_chemical_formula_sum   'Li8 Fe4 P4 C4 O28'
_cell_volume   550.20324448
_cell_formula_units_Z   4
loop_
 _symmetry_equiv_pos_site_id
 _symmetry_equiv_pos_as_xyz
  1  'x, y, z'
loop_
 _atom_site_type_symbol
 _atom_site_label
 _atom_site_symmetry_multiplicity
 _atom_site_fract_x
 _atom_site_fract_y
 _atom_site_fract_z
 _atom_site_occupancy
  Li  Li0  1  0.74912900  0.90244700  0.36890800  1
  Li  Li1  1  0.75087100  0.90244700  0.86890800  1
  Li  Li2  1  0.53568500  0.72169200  0.62250300  1
  Li  Li3  1  0.96431500  0.72169200  0.12250300  1
  Li  Li4  1  0.46431500  0.27830800  0.37749700  1
  Li  Li5  1  0.03568500  0.27830800  0.87749700  1
  Li  Li6  1  0.25087100  0.09755300  0.63109200  1
  Li  Li7  1  0.24912900  0.09755300  0.13109200  1
  Fe  Fe8  1  0.25068600  0.67075200  0.35059200  1
  Fe  Fe9  1  0.24931400  0.67075200  0.85059200  1
  Fe  Fe10  1  0.74931400  0.32924800  0.64940800  1
  Fe  Fe11  1  0.75068600  0.32924800  0.14940800  1
  P  P12  1  0.74195800  0.57993800  0.38838400  1
  P  P13  1  0.75804200  0.57993800  0.88838400  1
  P  P14  1  0.25804200  0.42006200  0.61161600  1
  P  P15  1  0.24195800  0.42006200  0.11161600  1
  C  C16  1  0.25902900  0.96031000  0.39918100  1
  C  C17  1  0.24097100  0.96031000  0.89918100  1
  C  C18  1  0.74097100  0.03969000  0.60081900  1
  C  C19  1  0.75902900  0.03969000  0.10081900  1
  O  O20  1  0.23949900  0.92431400  0.27668900  1
  O  O21  1  0.71864400  0.89807100  0.56740600  1
  O  O22  1  0.26050100  0.92431400  0.77668900  1
  O  O23  1  0.25513500  0.83597300  0.48745300  1
  O  O24  1  0.78135600  0.89807100  0.06740600  1
  O  O25  1  0.24486500  0.83597300  0.98745300  1
  O  O26  1  0.93216000  0.68309600  0.34187500  1
  O  O27  1  0.55857500  0.69511000  0.35323100  1
  O  O28  1  0.94142500  0.69511000  0.85323100  1
  O  O29  1  0.56784000  0.68309600  0.84187500  1
  O  O30  1  0.27625900  0.57851400  0.67805700  1
  O  O31  1  0.74082800  0.53822600  0.54050400  1
  O  O32  1  0.22374100  0.57851400  0.17805700  1
  O  O33  1  0.75917200  0.53822600  0.04050400  1
  O  O34  1  0.25917200  0.46177400  0.45949600  1
  O  O35  1  0.72374100  0.42148600  0.32194300  1
  O  O36  1  0.24082800  0.46177400  0.95949600  1
  O  O37  1  0.77625900  0.42148600  0.82194300  1
  O  O38  1  0.44142500  0.30489000  0.64676900  1
  O  O39  1  0.06784000  0.31690400  0.65812500  1
  O  O40  1  0.43216000  0.31690400  0.15812500  1
  O  O41  1  0.05857500  0.30489000  0.14676900  1
  O  O42  1  0.74486500  0.16402700  0.51254700  1
  O  O43  1  0.28135600  0.10192900  0.43259400  1
  O  O44  1  0.75513500  0.16402700  0.01254700  1
  O  O45  1  0.76050100  0.07568600  0.72331100  1
  O  O46  1  0.21864400  0.10192900  0.93259400  1
  O  O47  1  0.73949900  0.07568600  0.22331100  1
