# generated using pymatgen
data_Li2Fe(Si2O5)2
_symmetry_space_group_name_H-M   'P 1'
_cell_length_a   6.93134898
_cell_length_b   7.77173436
_cell_length_c   9.57782484
_cell_angle_alpha   100.73642483
_cell_angle_beta   79.80072132
_cell_angle_gamma   62.80137231
_symmetry_Int_Tables_number   1
_chemical_formula_structural   Li2Fe(Si2O5)2
_chemical_formula_sum   'Li4 Fe2 Si8 O20'
_cell_volume   430.08406922
_cell_formula_units_Z   2
loop_
 _symmetry_equiv_pos_site_id
 _symmetry_equiv_pos_as_xyz
  1  'x, y, z'
loop_
 _atom_site_type_symbol
 _atom_site_label
 _atom_site_symmetry_multiplicity
 _atom_site_fract_x
 _atom_site_fract_y
 _atom_site_fract_z
 _atom_site_occupancy
  Li  Li0  1  0.29589146  0.30493883  0.40821623  1
  Li  Li1  1  0.40091380  0.80802265  0.04672400  1
  Li  Li2  1  0.59908620  0.19197735  0.95327600  1
  Li  Li3  1  0.70410854  0.69506117  0.59178377  1
  Fe  Fe4  1  0.23066834  0.69899010  0.57406869  1
  Fe  Fe5  1  0.76933166  0.30100990  0.42593131  1
  Si  Si6  1  0.12129588  0.26605413  0.14433021  1
  Si  Si7  1  0.23086521  0.06611113  0.81577835  1
  Si  Si8  1  0.21784015  0.59354923  0.22469658  1
  Si  Si9  1  0.36843228  0.37593517  0.74789709  1
  Si  Si10  1  0.63156772  0.62406483  0.25210291  1
  Si  Si11  1  0.78215985  0.40645077  0.77530342  1
  Si  Si12  1  0.76913479  0.93388887  0.18422165  1
  Si  Si13  1  0.87870412  0.73394587  0.85566979  1
  O  O14  1  0.11383312  0.20228771  0.29292746  1
  O  O15  1  0.96988045  0.22226871  0.82176042  1
  O  O16  1  0.28992605  0.36541328  0.11438520  1
  O  O17  1  0.23034182  0.06613556  0.99208765  1
  O  O18  1  0.14973810  0.59949002  0.39425376  1
  O  O19  1  0.12463670  0.56303119  0.86188802  1
  O  O20  1  0.39014504  0.16130100  0.76332913  1
  O  O21  1  0.41135934  0.39005876  0.58140579  1
  O  O22  1  0.44187548  0.61694844  0.17074637  1
  O  O23  1  0.66328515  0.16072399  0.28718027  1
  O  O24  1  0.33671485  0.83927601  0.71281973  1
  O  O25  1  0.55812452  0.38305156  0.82925363  1
  O  O26  1  0.58864066  0.60994124  0.41859421  1
  O  O27  1  0.60985496  0.83869900  0.23667087  1
  O  O28  1  0.87536330  0.43696881  0.13811298  1
  O  O29  1  0.85026190  0.40050998  0.60574624  1
  O  O30  1  0.76965818  0.93386444  0.00791235  1
  O  O31  1  0.71007395  0.63458672  0.88561480  1
  O  O32  1  0.03011955  0.77773129  0.17823958  1
  O  O33  1  0.88616688  0.79771229  0.70707254  1
