# generated using pymatgen
data_Li3V3P8O29
_symmetry_space_group_name_H-M   'P 1'
_cell_length_a   9.75332700
_cell_length_b   9.77538635
_cell_length_c   14.20128947
_cell_angle_alpha   89.93225358
_cell_angle_beta   90.30613487
_cell_angle_gamma   119.91400844
_symmetry_Int_Tables_number   1
_chemical_formula_structural   Li3V3P8O29
_chemical_formula_sum   'Li6 V6 P16 O58'
_cell_volume   1173.58340945
_cell_formula_units_Z   2
loop_
 _symmetry_equiv_pos_site_id
 _symmetry_equiv_pos_as_xyz
  1  'x, y, z'
loop_
 _atom_site_type_symbol
 _atom_site_label
 _atom_site_symmetry_multiplicity
 _atom_site_fract_x
 _atom_site_fract_y
 _atom_site_fract_z
 _atom_site_occupancy
  Li  Li0  1  0.68902600  0.91213900  0.94138500  1
  Li  Li1  1  0.23192800  0.90542900  0.44720900  1
  Li  Li2  1  0.22857900  0.32055200  0.94032500  1
  Li  Li3  1  0.09353300  0.32787600  0.44344200  1
  Li  Li4  1  0.30224300  0.08046200  0.05600600  1
  Li  Li5  1  0.95198000  0.97020700  0.50511300  1
  V  V6  1  0.99962300  0.56728900  0.75454800  1
  V  V7  1  0.00002300  0.43723200  0.24440400  1
  V  V8  1  0.56749800  0.56896300  0.25562000  1
  V  V9  1  0.44056800  0.43662100  0.74304500  1
  V  V10  1  0.56738000  0.00341300  0.74551800  1
  V  V11  1  0.43770100  0.99818700  0.25276800  1
  P  P12  1  0.68392800  0.91021100  0.15896900  1
  P  P13  1  0.69549000  0.77909500  0.65741500  1
  P  P14  1  0.22200700  0.91035900  0.66083500  1
  P  P15  1  0.33803700  0.66664000  0.86834500  1
  P  P16  1  0.33021600  0.66454300  0.36920000  1
  P  P17  1  0.08578900  0.77415400  0.15434000  1
  P  P18  1  0.91944700  0.69271400  0.33933500  1
  P  P19  1  0.23316100  0.31975500  0.15816700  1
  P  P20  1  0.77193800  0.68635400  0.84153300  1
  P  P21  1  0.08516500  0.31469100  0.65773400  1
  P  P22  1  0.91398600  0.22658400  0.83969200  1
  P  P23  1  0.67093400  0.33538200  0.63053200  1
  P  P24  1  0.66050600  0.33273100  0.13312600  1
  P  P25  1  0.78284900  0.08893000  0.34013800  1
  P  P26  1  0.30856300  0.22358500  0.34063600  1
  P  P27  1  0.32009900  0.09201800  0.84043500  1
  O  O28  1  0.79596700  0.00738200  0.42431000  1
  O  O29  1  0.65405700  0.91277200  0.66981000  1
  O  O30  1  0.76171100  0.76721000  0.92675100  1
  O  O31  1  0.65853500  0.74224000  0.17145800  1
  O  O32  1  0.52206000  0.90196500  0.18280100  1
  O  O33  1  0.48454200  0.81941400  0.82813500  1
  O  O34  1  0.38129900  0.91014700  0.67427400  1
  O  O35  1  0.24917400  0.01233900  0.93069200  1
  O  O36  1  0.25826100  0.91792200  0.16388700  1
  O  O37  1  0.48108700  0.66971900  0.32625300  1
  O  O38  1  0.53803500  0.61826200  0.66768400  1
  O  O39  1  0.32478800  0.81427800  0.32865200  1
  O  O40  1  0.33429900  0.66100600  0.97299500  1
  O  O41  1  0.32586900  0.66533000  0.47379500  1
  O  O42  1  0.18539700  0.66003700  0.82329200  1
  O  O43  1  0.38370300  0.47864000  0.17929100  1
  O  O44  1  0.34052100  0.52003800  0.82464700  1
  O  O45  1  0.08346000  0.73994100  0.67111600  1
  O  O46  1  0.99874600  0.79424600  0.24551300  1
  O  O47  1  0.00620300  0.78932400  0.42304500  1
  O  O48  1  0.00500800  0.76640700  0.06532100  1
  O  O49  1  0.09392700  0.61962200  0.17669200  1
  O  O50  1  0.18454700  0.51258000  0.32692100  1
  O  O51  1  0.91290400  0.65517200  0.83628900  1
  O  O52  1  0.08429200  0.47017100  0.67320300  1
  O  O53  1  0.25807300  0.34737800  0.67079000  1
  O  O54  1  0.79798700  0.79504500  0.74975500  1
  O  O55  1  0.78846700  0.79876500  0.57182000  1
  O  O56  1  0.20580000  0.21408400  0.42021900  1
  O  O57  1  0.74471700  0.65502300  0.33482400  1
  O  O58  1  0.92060900  0.53551700  0.32643700  1
  O  O59  1  0.08800700  0.34363900  0.16627100  1
  O  O60  1  0.81460700  0.48094200  0.67677400  1
  O  O61  1  0.90656500  0.38012600  0.82439200  1
  O  O62  1  0.00963100  0.23340400  0.92285800  1
  O  O63  1  0.01855200  0.23370000  0.56620300  1
  O  O64  1  0.98874600  0.20060300  0.74369400  1
  O  O65  1  0.91892500  0.26353100  0.33494500  1
  O  O66  1  0.65676400  0.47483000  0.18061000  1
  O  O67  1  0.61885600  0.52673900  0.82044700  1
  O  O68  1  0.81309800  0.33758000  0.17690900  1
  O  O69  1  0.65225300  0.32613100  0.02911300  1
  O  O70  1  0.66541500  0.32920500  0.52650000  1
  O  O71  1  0.66950600  0.18465300  0.67506800  1
  O  O72  1  0.46545900  0.38280800  0.33074400  1
  O  O73  1  0.51875200  0.33119500  0.67448800  1
  O  O74  1  0.74320800  0.08262200  0.83966200  1
  O  O75  1  0.80067900  0.01100600  0.24349800  1
  O  O76  1  0.74392400  0.98619600  0.06680400  1
  O  O77  1  0.62061100  0.08532400  0.32676400  1
  O  O78  1  0.51384400  0.17947900  0.17714900  1
  O  O79  1  0.47861700  0.09732500  0.81878000  1
  O  O80  1  0.34363500  0.26118500  0.83550800  1
  O  O81  1  0.24321000  0.24776900  0.06732400  1
  O  O82  1  0.21431000  0.20054400  0.24166800  1
  O  O83  1  0.34252700  0.08351900  0.34052700  1
  O  O84  1  0.21499600  0.98378000  0.57035500  1
  O  O85  1  0.20733600  0.00233400  0.75077100  1
