# generated using pymatgen
data_LiVCrP2(HO5)2
_symmetry_space_group_name_H-M   'P 1'
_cell_length_a   5.20352100
_cell_length_b   7.36326010
_cell_length_c   14.51604143
_cell_angle_alpha   91.84160681
_cell_angle_beta   93.85046245
_cell_angle_gamma   105.51099300
_symmetry_Int_Tables_number   1
_chemical_formula_structural   LiVCrP2(HO5)2
_chemical_formula_sum   'Li3 V3 Cr3 P6 H6 O30'
_cell_volume   533.98770273
_cell_formula_units_Z   3
loop_
 _symmetry_equiv_pos_site_id
 _symmetry_equiv_pos_as_xyz
  1  'x, y, z'
loop_
 _atom_site_type_symbol
 _atom_site_label
 _atom_site_symmetry_multiplicity
 _atom_site_fract_x
 _atom_site_fract_y
 _atom_site_fract_z
 _atom_site_occupancy
  Li  Li0  1  0.25869000  0.03528800  0.18603600  1
  Li  Li1  1  0.40707000  0.63115400  0.47988700  1
  Li  Li2  1  0.74133500  0.96390900  0.81340900  1
  V  V3  1  0.66117600  0.65992900  0.16548300  1
  V  V4  1  0.00445700  0.00594900  0.50022000  1
  V  V5  1  0.33776300  0.33930100  0.83349100  1
  Cr  Cr6  1  0.99984000  0.00011400  0.99979600  1
  Cr  Cr7  1  0.33314500  0.33352800  0.33307000  1
  Cr  Cr8  1  0.66420600  0.66412400  0.66592000  1
  P  P9  1  0.59263700  0.26470700  0.04149800  1
  P  P10  1  0.74262500  0.06179700  0.29145900  1
  P  P11  1  0.92351500  0.60461000  0.37476400  1
  P  P12  1  0.07339200  0.40020900  0.62497000  1
  P  P13  1  0.25639000  0.93673400  0.70834300  1
  P  P14  1  0.40693300  0.73479100  0.95796300  1
  H  H15  1  0.10110600  0.74766400  0.09467000  1
  H  H16  1  0.21465600  0.56735000  0.23036800  1
  H  H17  1  0.45141400  0.09964600  0.43636900  1
  H  H18  1  0.56345800  0.91734400  0.57123700  1
  H  H19  1  0.78410100  0.43113100  0.76888100  1
  H  H20  1  0.89789000  0.25230600  0.90517100  1
  O  O21  1  0.76211800  0.12838400  0.05864300  1
  O  O22  1  0.30888700  0.18236500  0.07192800  1
  O  O23  1  0.40733900  0.68433200  0.06232800  1
  O  O24  1  0.72536700  0.45115500  0.10180800  1
  O  O25  1  0.97980200  0.82691500  0.10806900  1
  O  O26  1  0.03110900  0.13750300  0.26463200  1
  O  O27  1  0.36667400  0.51075600  0.22939700  1
  O  O28  1  0.57463100  0.20268700  0.27470000  1
  O  O29  1  0.73834000  0.01213100  0.39579200  1
  O  O30  1  0.59514500  0.88537600  0.22780700  1
  O  O31  1  0.92787300  0.65417000  0.27067100  1
  O  O32  1  0.09227900  0.46433000  0.39203000  1
  O  O33  1  0.29904900  0.15595300  0.43703500  1
  O  O34  1  0.63547000  0.52882500  0.40200200  1
  O  O35  1  0.07083000  0.78134300  0.43862700  1
  O  O36  1  0.93894000  0.21452900  0.56460900  1
  O  O37  1  0.35628900  0.48314700  0.59374000  1
  O  O38  1  0.68503200  0.83812500  0.55782000  1
  O  O39  1  0.90728300  0.53930000  0.60928100  1
  O  O40  1  0.07626600  0.34794800  0.72881300  1
  O  O41  1  0.40218100  0.11384700  0.77197500  1
  O  O42  1  0.26397300  0.98449500  0.60377100  1
  O  O43  1  0.42664700  0.79776800  0.72634600  1
  O  O44  1  0.63172200  0.48730400  0.76963800  1
  O  O45  1  0.96670500  0.86219100  0.73399200  1
  O  O46  1  0.01895100  0.17299700  0.89151300  1
  O  O47  1  0.27450400  0.54863900  0.89788900  1
  O  O48  1  0.59215000  0.31499800  0.93739300  1
  O  O49  1  0.69109600  0.81744800  0.92800500  1
  O  O50  1  0.23785200  0.87155600  0.94139900  1
