# generated using pymatgen
data_LiCrPO4
_symmetry_space_group_name_H-M   'P 1'
_cell_length_a   9.22541700
_cell_length_b   6.48144700
_cell_length_c   5.08678900
_cell_angle_alpha   89.99900936
_cell_angle_beta   89.99981674
_cell_angle_gamma   90.00142405
_symmetry_Int_Tables_number   1
_chemical_formula_structural   LiCrPO4
_chemical_formula_sum   'Li4 Cr4 P4 O16'
_cell_volume   304.15972254
_cell_formula_units_Z   4
loop_
 _symmetry_equiv_pos_site_id
 _symmetry_equiv_pos_as_xyz
  1  'x, y, z'
loop_
 _atom_site_type_symbol
 _atom_site_label
 _atom_site_symmetry_multiplicity
 _atom_site_fract_x
 _atom_site_fract_y
 _atom_site_fract_z
 _atom_site_occupancy
  Li  Li0  1  0.16574000  0.74997300  0.45680600  1
  Li  Li1  1  0.33419400  0.25000700  0.95681900  1
  Li  Li2  1  0.66578200  0.74999900  0.04309000  1
  Li  Li3  1  0.83418900  0.24998300  0.54310500  1
  Cr  Cr4  1  0.99986000  0.99967600  0.00027200  1
  Cr  Cr5  1  0.00016000  0.49967700  0.99958700  1
  Cr  Cr6  1  0.49998800  0.00023000  0.50017000  1
  Cr  Cr7  1  0.50003000  0.50011400  0.50005500  1
  P  P8  1  0.18335100  0.24994400  0.46063800  1
  P  P9  1  0.31665300  0.75007800  0.96070400  1
  P  P10  1  0.68332400  0.25007000  0.03937400  1
  P  P11  1  0.81668900  0.74995100  0.53933400  1
  O  O12  1  0.14810700  0.25003800  0.75689400  1
  O  O13  1  0.12280100  0.05271800  0.32912600  1
  O  O14  1  0.12272100  0.44708100  0.32904100  1
  O  O15  1  0.14586500  0.74994400  0.90822100  1
  O  O16  1  0.35416200  0.25009200  0.40841600  1
  O  O17  1  0.37721400  0.94729200  0.82917100  1
  O  O18  1  0.37735700  0.55291400  0.82928600  1
  O  O19  1  0.35177600  0.75007200  0.25699000  1
  O  O20  1  0.64816900  0.25007000  0.74308300  1
  O  O21  1  0.62264800  0.05289200  0.17080600  1
  O  O22  1  0.62280100  0.44728100  0.17093800  1
  O  O23  1  0.64589700  0.75009300  0.59173700  1
  O  O24  1  0.85412400  0.24994700  0.09166800  1
  O  O25  1  0.87726300  0.55272600  0.67079100  1
  O  O26  1  0.87735100  0.94710100  0.67083600  1
  O  O27  1  0.85178300  0.75003700  0.24304200  1
