# generated using pymatgen
data_Li2Cr(SiO3)2
_symmetry_space_group_name_H-M   'P 1'
_cell_length_a   7.02806600
_cell_length_b   10.12839000
_cell_length_c   10.28575100
_cell_angle_alpha   90.00000000
_cell_angle_beta   90.00000000
_cell_angle_gamma   90.00000000
_symmetry_Int_Tables_number   1
_chemical_formula_structural   Li2Cr(SiO3)2
_chemical_formula_sum   'Li12 Cr6 Si12 O36'
_cell_volume   732.17054548
_cell_formula_units_Z   6
loop_
 _symmetry_equiv_pos_site_id
 _symmetry_equiv_pos_as_xyz
  1  'x, y, z'
loop_
 _atom_site_type_symbol
 _atom_site_label
 _atom_site_symmetry_multiplicity
 _atom_site_fract_x
 _atom_site_fract_y
 _atom_site_fract_z
 _atom_site_occupancy
  Li  Li0  1  0.50513900  0.49694400  0.00000000  1
  Li  Li1  1  0.26670800  0.26424600  0.00000000  1
  Li  Li2  1  0.70095200  0.54304700  0.79253600  1
  Li  Li3  1  0.23031900  0.49257800  0.76750400  1
  Li  Li4  1  0.76968100  0.99257800  0.73249600  1
  Li  Li5  1  0.29904800  0.04304700  0.70746400  1
  Li  Li6  1  0.73329200  0.76424600  0.50000000  1
  Li  Li7  1  0.49486100  0.99694400  0.50000000  1
  Li  Li8  1  0.29904800  0.04304700  0.29253600  1
  Li  Li9  1  0.76968100  0.99257800  0.26750400  1
  Li  Li10  1  0.23031900  0.49257800  0.23249600  1
  Li  Li11  1  0.70095200  0.54304700  0.20746400  1
  Cr  Cr12  1  0.01456600  0.00036000  0.00000000  1
  Cr  Cr13  1  0.75155200  0.75555500  0.00000000  1
  Cr  Cr14  1  0.26100300  0.74725300  0.00000000  1
  Cr  Cr15  1  0.98543400  0.50036000  0.50000000  1
  Cr  Cr16  1  0.73899700  0.24725300  0.50000000  1
  Cr  Cr17  1  0.24844800  0.25555500  0.50000000  1
  Si  Si18  1  0.01120100  0.45473300  0.00000000  1
  Si  Si19  1  0.48957400  0.05085600  0.00000000  1
  Si  Si20  1  0.98290100  0.23914300  0.77063200  1
  Si  Si21  1  0.52588000  0.26317500  0.77469600  1
  Si  Si22  1  0.47412000  0.76317500  0.72530400  1
  Si  Si23  1  0.01709900  0.73914300  0.72936800  1
  Si  Si24  1  0.51042600  0.55085600  0.50000000  1
  Si  Si25  1  0.98879900  0.95473300  0.50000000  1
  Si  Si26  1  0.01709900  0.73914300  0.27063200  1
  Si  Si27  1  0.47412000  0.76317500  0.27469600  1
  Si  Si28  1  0.52588000  0.26317500  0.22530400  1
  Si  Si29  1  0.98290100  0.23914300  0.22936800  1
  O  O30  1  0.70662600  0.99996700  0.00000000  1
  O  O31  1  0.79868300  0.51098500  0.00000000  1
  O  O32  1  0.31160400  0.94603900  0.00000000  1
  O  O33  1  0.19424900  0.55287400  0.00000000  1
  O  O34  1  0.43329000  0.15338100  0.87809100  1
  O  O35  1  0.06463800  0.35126100  0.87627900  1
  O  O36  1  0.97011300  0.79716100  0.87252000  1
  O  O37  1  0.54135400  0.71104200  0.86772100  1
  O  O38  1  0.47675400  0.41145000  0.81854600  1
  O  O39  1  0.05526600  0.09153400  0.80530300  1
  O  O40  1  0.75245600  0.23032100  0.78301800  1
  O  O41  1  0.24754400  0.73032100  0.71698200  1
  O  O42  1  0.94473400  0.59153400  0.69469700  1
  O  O43  1  0.52324600  0.91145000  0.68145400  1
  O  O44  1  0.45864600  0.21104200  0.63227900  1
  O  O45  1  0.02988700  0.29716100  0.62748000  1
  O  O46  1  0.93536200  0.85126100  0.62372100  1
  O  O47  1  0.56671000  0.65338100  0.62190900  1
  O  O48  1  0.29337400  0.49996700  0.50000000  1
  O  O49  1  0.68839600  0.44603900  0.50000000  1
  O  O50  1  0.20131700  0.01098500  0.50000000  1
  O  O51  1  0.80575100  0.05287400  0.50000000  1
  O  O52  1  0.56671000  0.65338100  0.37809100  1
  O  O53  1  0.93536200  0.85126100  0.37627900  1
  O  O54  1  0.02988700  0.29716100  0.37252000  1
  O  O55  1  0.45864600  0.21104200  0.36772100  1
  O  O56  1  0.52324600  0.91145000  0.31854600  1
  O  O57  1  0.94473400  0.59153400  0.30530300  1
  O  O58  1  0.24754400  0.73032100  0.28301800  1
  O  O59  1  0.75245600  0.23032100  0.21698200  1
  O  O60  1  0.05526600  0.09153400  0.19469700  1
  O  O61  1  0.47675400  0.41145000  0.18145400  1
  O  O62  1  0.54135400  0.71104200  0.13227900  1
  O  O63  1  0.97011300  0.79716100  0.12748000  1
  O  O64  1  0.06463800  0.35126100  0.12372100  1
  O  O65  1  0.43329000  0.15338100  0.12190900  1
