# generated using pymatgen
data_LiVCr(P2O7)2
_symmetry_space_group_name_H-M   'P 1'
_cell_length_a   7.21401101
_cell_length_b   9.41663497
_cell_length_c   9.47105935
_cell_angle_alpha   117.74511043
_cell_angle_beta   101.57094928
_cell_angle_gamma   101.20047985
_symmetry_Int_Tables_number   1
_chemical_formula_structural   LiVCr(P2O7)2
_chemical_formula_sum   'Li2 V2 Cr2 P8 O28'
_cell_volume   526.25386221
_cell_formula_units_Z   2
loop_
 _symmetry_equiv_pos_site_id
 _symmetry_equiv_pos_as_xyz
  1  'x, y, z'
loop_
 _atom_site_type_symbol
 _atom_site_label
 _atom_site_symmetry_multiplicity
 _atom_site_fract_x
 _atom_site_fract_y
 _atom_site_fract_z
 _atom_site_occupancy
  Li  Li0  1  0.67600400  0.18727900  0.32032800  1
  Li  Li1  1  0.67598600  0.68731600  0.82034400  1
  V  V2  1  0.72440500  0.00681800  0.51159800  1
  V  V3  1  0.72439300  0.50680800  0.01161200  1
  Cr  Cr4  1  0.27198800  0.74630500  0.74117300  1
  Cr  Cr5  1  0.27210900  0.24626500  0.24105700  1
  P  P6  1  0.51689900  0.65135700  0.46858200  1
  P  P7  1  0.51695200  0.15134800  0.96857800  1
  P  P8  1  0.09265200  0.82181800  0.04189500  1
  P  P9  1  0.09267400  0.32184200  0.54185700  1
  P  P10  1  0.91117800  0.70760200  0.42789900  1
  P  P11  1  0.91128400  0.20764300  0.92791200  1
  P  P12  1  0.48058900  0.77903800  0.09944900  1
  P  P13  1  0.48063800  0.27910400  0.59948100  1
  O  O14  1  0.85160000  0.07158000  0.73757700  1
  O  O15  1  0.85151700  0.57152000  0.23758500  1
  O  O16  1  0.89055100  0.21601200  0.52951400  1
  O  O17  1  0.89052100  0.71601200  0.02958800  1
  O  O18  1  0.48901300  0.68418000  0.63615600  1
  O  O19  1  0.48905100  0.18412600  0.13613700  1
  O  O20  1  0.51975900  0.80588400  0.44949600  1
  O  O21  1  0.51979300  0.30586700  0.94948600  1
  O  O22  1  0.60599400  0.94723400  0.26909800  1
  O  O23  1  0.60605900  0.44728800  0.76910700  1
  O  O24  1  0.90425000  0.87753500  0.44530000  1
  O  O25  1  0.90433400  0.37758900  0.94537200  1
  O  O26  1  0.74440400  0.64421400  0.49589800  1
  O  O27  1  0.74444900  0.14418700  0.99584500  1
  O  O28  1  0.25170500  0.73810500  0.09242800  1
  O  O29  1  0.25176300  0.23819200  0.59242700  1
  O  O30  1  0.07768900  0.79563500  0.86740900  1
  O  O31  1  0.07777000  0.29563900  0.36738900  1
  O  O32  1  0.37647600  0.48881500  0.31059100  1
  O  O33  1  0.37650600  0.98881900  0.81056300  1
  O  O34  1  0.49202100  0.79877400  0.94914100  1
  O  O35  1  0.49213400  0.29879600  0.44917200  1
  O  O36  1  0.53860200  0.62781800  0.08773300  1
  O  O37  1  0.53866400  0.12790700  0.58778300  1
  O  O38  1  0.10438100  0.20968700  0.02510000  1
  O  O39  1  0.10429000  0.70970100  0.52508700  1
  O  O40  1  0.15625300  0.50597300  0.68270200  1
  O  O41  1  0.15629100  0.00594000  0.18276000  1
