# generated using pymatgen
data_LiCrB2O5
_symmetry_space_group_name_H-M   'P 1'
_cell_length_a   10.67555500
_cell_length_b   5.40538600
_cell_length_c   12.03099854
_cell_angle_alpha   79.53632539
_cell_angle_beta   90.00000000
_cell_angle_gamma   90.00000000
_symmetry_Int_Tables_number   1
_chemical_formula_structural   LiCrB2O5
_chemical_formula_sum   'Li8 Cr8 B16 O40'
_cell_volume   682.70944752
_cell_formula_units_Z   8
loop_
 _symmetry_equiv_pos_site_id
 _symmetry_equiv_pos_as_xyz
  1  'x, y, z'
loop_
 _atom_site_type_symbol
 _atom_site_label
 _atom_site_symmetry_multiplicity
 _atom_site_fract_x
 _atom_site_fract_y
 _atom_site_fract_z
 _atom_site_occupancy
  Li  Li0  1  0.63102000  0.38020900  0.06297800  1
  Li  Li1  1  0.86898000  0.88020900  0.06297800  1
  Li  Li2  1  0.12015100  0.11864800  0.43800500  1
  Li  Li3  1  0.37984900  0.61864800  0.43800500  1
  Li  Li4  1  0.62015100  0.38135200  0.56199500  1
  Li  Li5  1  0.87984900  0.88135200  0.56199500  1
  Li  Li6  1  0.13102000  0.11979100  0.93702200  1
  Li  Li7  1  0.36898000  0.61979100  0.93702200  1
  Cr  Cr8  1  0.37653700  0.26950600  0.23851400  1
  Cr  Cr9  1  0.87574000  0.25469700  0.25894700  1
  Cr  Cr10  1  0.12346300  0.76950600  0.23851400  1
  Cr  Cr11  1  0.62426000  0.75469700  0.25894700  1
  Cr  Cr12  1  0.37574000  0.24530300  0.74105300  1
  Cr  Cr13  1  0.87653700  0.23049400  0.76148600  1
  Cr  Cr14  1  0.12426000  0.74530300  0.74105300  1
  Cr  Cr15  1  0.62346300  0.73049400  0.76148600  1
  B  B16  1  0.37086000  0.14546600  0.00548700  1
  B  B17  1  0.12914000  0.64546600  0.00548700  1
  B  B18  1  0.11981600  0.30591700  0.16634400  1
  B  B19  1  0.38018400  0.80591700  0.16634400  1
  B  B20  1  0.62883200  0.20575200  0.33425900  1
  B  B21  1  0.87116800  0.70575200  0.33425900  1
  B  B22  1  0.38673600  0.15749000  0.50901700  1
  B  B23  1  0.88673600  0.34251000  0.49098300  1
  B  B24  1  0.11326400  0.65749000  0.50901700  1
  B  B25  1  0.61326400  0.84251000  0.49098300  1
  B  B26  1  0.12883200  0.29424800  0.66574100  1
  B  B27  1  0.37116800  0.79424800  0.66574100  1
  B  B28  1  0.61981600  0.19408300  0.83365600  1
  B  B29  1  0.88018400  0.69408300  0.83365600  1
  B  B30  1  0.87086000  0.35453400  0.99451300  1
  B  B31  1  0.62914000  0.85453400  0.99451300  1
  O  O32  1  0.39516200  0.32141600  0.07097300  1
  O  O33  1  0.10970100  0.38353000  0.05045600  1
  O  O34  1  0.82269100  0.28608300  0.09970500  1
  O  O35  1  0.10483800  0.82141600  0.07097300  1
  O  O36  1  0.39029900  0.88353000  0.05045600  1
  O  O37  1  0.67730900  0.78608300  0.09970500  1
  O  O38  1  0.04483300  0.11634500  0.22304000  1
  O  O39  1  0.55404500  0.11255900  0.25583200  1
  O  O40  1  0.20145800  0.42998000  0.22719700  1
  O  O41  1  0.45516700  0.61634500  0.22304000  1
  O  O42  1  0.70702400  0.40610400  0.29482500  1
  O  O43  1  0.94595500  0.61255900  0.25583200  1
  O  O44  1  0.29854200  0.92998000  0.22719700  1
  O  O45  1  0.79297600  0.90610400  0.29482500  1
  O  O46  1  0.35302700  0.25670500  0.40218900  1
  O  O47  1  0.62862000  0.10660300  0.44977400  1
  O  O48  1  0.92702800  0.18749100  0.41998100  1
  O  O49  1  0.14697300  0.75670500  0.40218900  1
  O  O50  1  0.87138000  0.60660300  0.44977400  1
  O  O51  1  0.57297200  0.68749100  0.41998100  1
  O  O52  1  0.42702800  0.31250900  0.58001900  1
  O  O53  1  0.12862000  0.39339700  0.55022600  1
  O  O54  1  0.85302700  0.24329500  0.59781100  1
  O  O55  1  0.07297200  0.81250900  0.58001900  1
  O  O56  1  0.37138000  0.89339700  0.55022600  1
  O  O57  1  0.64697300  0.74329500  0.59781100  1
  O  O58  1  0.20702400  0.09389600  0.70517500  1
  O  O59  1  0.70145800  0.07002000  0.77280300  1
  O  O60  1  0.05404500  0.38744100  0.74416800  1
  O  O61  1  0.29297600  0.59389600  0.70517500  1
  O  O62  1  0.54483300  0.38365500  0.77696000  1
  O  O63  1  0.79854200  0.57002000  0.77280300  1
  O  O64  1  0.44595500  0.88744100  0.74416800  1
  O  O65  1  0.95516700  0.88365500  0.77696000  1
  O  O66  1  0.32269100  0.21391700  0.90029500  1
  O  O67  1  0.60970100  0.11647000  0.94954400  1
  O  O68  1  0.89516200  0.17858400  0.92902700  1
  O  O69  1  0.17730900  0.71391700  0.90029500  1
  O  O70  1  0.89029900  0.61647000  0.94954400  1
  O  O71  1  0.60483800  0.67858400  0.92902700  1
