# generated using pymatgen
data_Na5LiFe2P2(CO7)2
_symmetry_space_group_name_H-M   'P 1'
_cell_length_a   6.59029000
_cell_length_b   8.98746600
_cell_length_c   10.39780805
_cell_angle_alpha   88.85200271
_cell_angle_beta   90.00000000
_cell_angle_gamma   90.00000000
_symmetry_Int_Tables_number   1
_chemical_formula_structural   Na5LiFe2P2(CO7)2
_chemical_formula_sum   'Na10 Li2 Fe4 P4 C4 O28'
_cell_volume   615.73863077
_cell_formula_units_Z   2
loop_
 _symmetry_equiv_pos_site_id
 _symmetry_equiv_pos_as_xyz
  1  'x, y, z'
loop_
 _atom_site_type_symbol
 _atom_site_label
 _atom_site_symmetry_multiplicity
 _atom_site_fract_x
 _atom_site_fract_y
 _atom_site_fract_z
 _atom_site_occupancy
  Na  Na0  1  0.49680200  0.08151400  0.88019200  1
  Na  Na1  1  0.50319800  0.08151400  0.38019200  1
  Na  Na2  1  0.25133400  0.26062600  0.62485500  1
  Na  Na3  1  0.74909600  0.26063200  0.62471000  1
  Na  Na4  1  0.25090400  0.26063200  0.12471000  1
  Na  Na5  1  0.74866600  0.26062600  0.12485500  1
  Na  Na6  1  0.75209200  0.73992200  0.87535400  1
  Na  Na7  1  0.24790800  0.73992200  0.37535400  1
  Na  Na8  1  0.00048300  0.91588300  0.61979000  1
  Na  Na9  1  0.99951700  0.91588300  0.11979000  1
  Li  Li10  1  0.24618700  0.72890300  0.87735600  1
  Li  Li11  1  0.75381300  0.72890300  0.37735600  1
  Fe  Fe12  1  0.99952100  0.35637300  0.89271900  1
  Fe  Fe13  1  0.00047900  0.35637300  0.39271900  1
  Fe  Fe14  1  0.50220000  0.64697800  0.60672900  1
  Fe  Fe15  1  0.49780000  0.64697800  0.10672900  1
  P  P16  1  0.49564700  0.41716200  0.84906800  1
  P  P17  1  0.50435300  0.41716200  0.34906800  1
  P  P18  1  0.00410900  0.58890800  0.64957600  1
  P  P19  1  0.99589100  0.58890800  0.14957600  1
  C  C20  1  0.00670000  0.05469900  0.86607100  1
  C  C21  1  0.99330000  0.05469900  0.36607100  1
  C  C22  1  0.49813600  0.93982300  0.63556600  1
  C  C23  1  0.50186400  0.93982300  0.13556600  1
  O  O24  1  0.49989600  0.08355500  0.64313500  1
  O  O25  1  0.50010400  0.08355500  0.14313500  1
  O  O26  1  0.99945200  0.11972800  0.97724500  1
  O  O27  1  0.00054800  0.11972800  0.47724500  1
  O  O28  1  0.99871800  0.13741400  0.76152800  1
  O  O29  1  0.00128200  0.13741400  0.26152800  1
  O  O30  1  0.31073100  0.31814300  0.89014900  1
  O  O31  1  0.68652800  0.32667500  0.89378200  1
  O  O32  1  0.31347200  0.32667500  0.39378200  1
  O  O33  1  0.68926900  0.31814300  0.39014900  1
  O  O34  1  0.50014400  0.43432500  0.69970900  1
  O  O35  1  0.00037800  0.43344100  0.58881500  1
  O  O36  1  0.49985600  0.43432500  0.19970900  1
  O  O37  1  0.99962200  0.43344100  0.08881500  1
  O  O38  1  0.48384400  0.57286100  0.90959400  1
  O  O39  1  0.01195400  0.57287200  0.79978900  1
  O  O40  1  0.51615600  0.57286100  0.40959400  1
  O  O41  1  0.98804600  0.57287200  0.29978900  1
  O  O42  1  0.81463600  0.68265700  0.60814800  1
  O  O43  1  0.19034000  0.68189400  0.60330800  1
  O  O44  1  0.80966000  0.68189400  0.10330800  1
  O  O45  1  0.18536400  0.68265700  0.10814800  1
  O  O46  1  0.49446300  0.85613800  0.73954500  1
  O  O47  1  0.50553700  0.85613800  0.23954500  1
  O  O48  1  0.50071900  0.87775100  0.52332500  1
  O  O49  1  0.49928100  0.87775100  0.02332500  1
  O  O50  1  0.02096100  0.91112200  0.85994300  1
  O  O51  1  0.97903900  0.91112200  0.35994300  1
