# generated using pymatgen
data_LiVSiO4
_symmetry_space_group_name_H-M   'P 1'
_cell_length_a   4.78417200
_cell_length_b   6.22459303
_cell_length_c   10.31094505
_cell_angle_alpha   89.98957819
_cell_angle_beta   90.00323035
_cell_angle_gamma   89.99991819
_symmetry_Int_Tables_number   1
_chemical_formula_structural   LiVSiO4
_chemical_formula_sum   'Li4 V4 Si4 O16'
_cell_volume   307.05502658
_cell_formula_units_Z   4
loop_
 _symmetry_equiv_pos_site_id
 _symmetry_equiv_pos_as_xyz
  1  'x, y, z'
loop_
 _atom_site_type_symbol
 _atom_site_label
 _atom_site_symmetry_multiplicity
 _atom_site_fract_x
 _atom_site_fract_y
 _atom_site_fract_z
 _atom_site_occupancy
  Li  Li0  1  0.02004900  0.00603500  0.21371400  1
  Li  Li1  1  0.48001100  0.00603800  0.71369700  1
  Li  Li2  1  0.51996900  0.50620700  0.28628900  1
  Li  Li3  1  0.97998800  0.50620400  0.78629400  1
  V  V4  1  0.49991300  0.25646400  0.00009400  1
  V  V5  1  0.00003300  0.75666700  0.49986000  1
  V  V6  1  0.99980400  0.25657700  0.50013500  1
  V  V7  1  0.50008400  0.75643000  0.99992400  1
  Si  Si8  1  0.08140700  0.50670000  0.08792200  1
  Si  Si9  1  0.41859300  0.50662000  0.58795700  1
  Si  Si10  1  0.58126400  0.00670900  0.41208300  1
  Si  Si11  1  0.91869400  0.00674600  0.91204900  1
  O  O12  1  0.23980900  0.50658300  0.94088000  1
  O  O13  1  0.26026000  0.50655700  0.44087000  1
  O  O14  1  0.73983000  0.00656100  0.55910600  1
  O  O15  1  0.76026400  0.00648200  0.05911000  1
  O  O16  1  0.23692000  0.00667800  0.41962900  1
  O  O17  1  0.26301900  0.00658100  0.91961200  1
  O  O18  1  0.73706500  0.50656400  0.08039000  1
  O  O19  1  0.76292000  0.50664400  0.58042500  1
  O  O20  1  0.22215900  0.28706300  0.14837200  1
  O  O21  1  0.22235900  0.72595300  0.14832300  1
  O  O22  1  0.27777600  0.72595700  0.64830000  1
  O  O23  1  0.27783000  0.28714000  0.64839300  1
  O  O24  1  0.72219400  0.78717800  0.35161400  1
  O  O25  1  0.72225000  0.22614600  0.35168400  1
  O  O26  1  0.77772400  0.22610100  0.85171700  1
  O  O27  1  0.77781200  0.78721900  0.85155900  1
