# generated using pymatgen
data_Na5LiMn2P2(CO7)2
_symmetry_space_group_name_H-M   'P 1'
_cell_length_a   6.81277400
_cell_length_b   8.96273799
_cell_length_c   10.32978844
_cell_angle_alpha   90.11940297
_cell_angle_beta   90.11229212
_cell_angle_gamma   90.23437492
_symmetry_Int_Tables_number   1
_chemical_formula_structural   Na5LiMn2P2(CO7)2
_chemical_formula_sum   'Na10 Li2 Mn4 P4 C4 O28'
_cell_volume   630.74046234
_cell_formula_units_Z   2
loop_
 _symmetry_equiv_pos_site_id
 _symmetry_equiv_pos_as_xyz
  1  'x, y, z'
loop_
 _atom_site_type_symbol
 _atom_site_label
 _atom_site_symmetry_multiplicity
 _atom_site_fract_x
 _atom_site_fract_y
 _atom_site_fract_z
 _atom_site_occupancy
  Na  Na0  1  0.25011500  0.91712600  0.87973800  1
  Na  Na1  1  0.24890200  0.91764700  0.38057900  1
  Na  Na2  1  0.00172600  0.74149900  0.62418000  1
  Na  Na3  1  0.49838400  0.74146200  0.62406300  1
  Na  Na4  1  0.00232200  0.74071000  0.12395700  1
  Na  Na5  1  0.49775900  0.74059000  0.12386000  1
  Na  Na6  1  0.50183800  0.25912600  0.87537200  1
  Na  Na7  1  0.99817900  0.25895800  0.87548600  1
  Na  Na8  1  0.50262400  0.25850900  0.37687600  1
  Na  Na9  1  0.75103400  0.08372000  0.12059900  1
  Li  Li10  1  0.99432700  0.26411400  0.37868600  1
  Li  Li11  1  0.75111400  0.08391900  0.61974400  1
  Mn  Mn12  1  0.74999000  0.63869800  0.88853800  1
  Mn  Mn13  1  0.75015200  0.63820700  0.38879200  1
  Mn  Mn14  1  0.24838000  0.35908500  0.61028200  1
  Mn  Mn15  1  0.24913500  0.36036900  0.11232000  1
  P  P16  1  0.24994100  0.58884100  0.85084200  1
  P  P17  1  0.24731300  0.58741400  0.35072200  1
  P  P18  1  0.75006300  0.40736300  0.64781500  1
  P  P19  1  0.75207800  0.40966100  0.14993500  1
  C  C20  1  0.75004400  0.94109800  0.86520700  1
  C  C21  1  0.75378600  0.94571800  0.37086800  1
  C  C22  1  0.24927700  0.05994600  0.63160800  1
  C  C23  1  0.24874900  0.06021800  0.13289700  1
  O  O24  1  0.25032700  0.91657200  0.64196200  1
  O  O25  1  0.25035000  0.91668600  0.14320700  1
  O  O26  1  0.75024500  0.87949600  0.97973000  1
  O  O27  1  0.74960200  0.88759500  0.48657000  1
  O  O28  1  0.75021200  0.85628800  0.76288100  1
  O  O29  1  0.74951800  0.85798700  0.26964600  1
  O  O30  1  0.06718400  0.68123800  0.89214600  1
  O  O31  1  0.43344700  0.68163100  0.89231600  1
  O  O32  1  0.06631600  0.68147200  0.39233900  1
  O  O33  1  0.43245500  0.67766900  0.39347600  1
  O  O34  1  0.24969600  0.57107900  0.70007400  1
  O  O35  1  0.75004300  0.56629100  0.58811700  1
  O  O36  1  0.24953400  0.57232200  0.20004100  1
  O  O37  1  0.75020400  0.56886200  0.09085000  1
  O  O38  1  0.25001600  0.43079300  0.91137500  1
  O  O39  1  0.75177500  0.42696800  0.79835500  1
  O  O40  1  0.24014000  0.42694800  0.40854400  1
  O  O41  1  0.75790800  0.42410100  0.30130400  1
  O  O42  1  0.56713000  0.31312200  0.60757600  1
  O  O43  1  0.93050000  0.31282900  0.60453800  1
  O  O44  1  0.56722200  0.31838000  0.10877400  1
  O  O45  1  0.93347700  0.31813600  0.10609300  1
  O  O46  1  0.24938200  0.14428100  0.73482900  1
  O  O47  1  0.24634800  0.14483100  0.23599100  1
  O  O48  1  0.24821700  0.12332400  0.51787800  1
  O  O49  1  0.24990500  0.12300700  0.01897400  1
  O  O50  1  0.74973800  0.08469200  0.85240500  1
  O  O51  1  0.76187400  0.08940400  0.35704500  1
