# generated using pymatgen
data_Li6VFeP2(CO7)2
_symmetry_space_group_name_H-M   'P 1'
_cell_length_a   5.01706206
_cell_length_b   10.75598184
_cell_length_c   10.75727593
_cell_angle_alpha   105.09165459
_cell_angle_beta   84.77634004
_cell_angle_gamma   95.23587546
_symmetry_Int_Tables_number   1
_chemical_formula_structural   Li6VFeP2(CO7)2
_chemical_formula_sum   'Li12 V2 Fe2 P4 C4 O28'
_cell_volume   556.77144892
_cell_formula_units_Z   2
loop_
 _symmetry_equiv_pos_site_id
 _symmetry_equiv_pos_as_xyz
  1  'x, y, z'
loop_
 _atom_site_type_symbol
 _atom_site_label
 _atom_site_symmetry_multiplicity
 _atom_site_fract_x
 _atom_site_fract_y
 _atom_site_fract_z
 _atom_site_occupancy
  Li  Li0  1  0.79617600  0.07236200  0.17769800  1
  Li  Li1  1  0.79619700  0.57232000  0.67764700  1
  Li  Li2  1  0.20440400  0.92667200  0.82338000  1
  Li  Li3  1  0.20365600  0.42679400  0.32325100  1
  Li  Li4  1  0.26676800  0.87372500  0.15094100  1
  Li  Li5  1  0.26736300  0.37346900  0.65094200  1
  Li  Li6  1  0.26740400  0.09914300  0.37655900  1
  Li  Li7  1  0.26694300  0.59919000  0.87627500  1
  Li  Li8  1  0.73172500  0.89689700  0.62055000  1
  Li  Li9  1  0.72990800  0.39650500  0.12063000  1
  Li  Li10  1  0.73190700  0.12944200  0.85308800  1
  Li  Li11  1  0.73011000  0.62938200  0.35349800  1
  V  V12  1  0.79065400  0.71186500  0.03809200  1
  V  V13  1  0.79151500  0.21205000  0.53795800  1
  Fe  Fe14  1  0.21060300  0.78980100  0.45988900  1
  Fe  Fe15  1  0.21079700  0.29000100  0.96010400  1
  P  P16  1  0.73197700  0.91981500  0.33033400  1
  P  P17  1  0.73201300  0.41964100  0.83018600  1
  P  P18  1  0.26968200  0.08027100  0.66965700  1
  P  P19  1  0.26837600  0.58027400  0.16967500  1
  C  C20  1  0.67001000  0.35697100  0.39305200  1
  C  C21  1  0.67047100  0.85697300  0.89302800  1
  C  C22  1  0.32842400  0.64308500  0.60668500  1
  C  C23  1  0.32838500  0.14335900  0.10696200  1
  O  O24  1  0.91828100  0.34231300  0.40773000  1
  O  O25  1  0.91857700  0.84215200  0.90790800  1
  O  O26  1  0.39642000  0.07219300  0.17789600  1
  O  O27  1  0.39644500  0.57211200  0.67782700  1
  O  O28  1  0.48631500  0.29602600  0.45391900  1
  O  O29  1  0.48627600  0.79609800  0.95373100  1
  O  O30  1  0.16882200  0.16202100  0.58802200  1
  O  O31  1  0.16810300  0.66212700  0.08797600  1
  O  O32  1  0.41772300  0.90956900  0.34078900  1
  O  O33  1  0.41774800  0.40920900  0.84044000  1
  O  O34  1  0.58283500  0.09074900  0.65917500  1
  O  O35  1  0.58152600  0.59059700  0.15932400  1
  O  O36  1  0.83005100  0.83766600  0.41253700  1
  O  O37  1  0.83007300  0.33737200  0.91227600  1
  O  O38  1  0.51214000  0.70387100  0.54536500  1
  O  O39  1  0.51209500  0.20480900  0.04629800  1
  O  O40  1  0.60618800  0.92830000  0.82182200  1
  O  O41  1  0.60509100  0.42822100  0.32187500  1
  O  O42  1  0.07991100  0.65677800  0.59340800  1
  O  O43  1  0.07987000  0.15653800  0.09316300  1
  O  O44  1  0.84018200  0.88016000  0.18634200  1
  O  O45  1  0.84079400  0.38031100  0.68626000  1
  O  O46  1  0.84087500  0.06375300  0.36971300  1
  O  O47  1  0.84036100  0.56364600  0.86983000  1
  O  O48  1  0.16285400  0.12138800  0.81464200  1
  O  O49  1  0.16124300  0.62139000  0.31461500  1
  O  O50  1  0.16269400  0.93528900  0.62851600  1
  O  O51  1  0.16104000  0.43534400  0.12851300  1
