# generated using pymatgen
data_Li3MnF6
_symmetry_space_group_name_H-M   'P 1'
_cell_length_a   4.86037500
_cell_length_b   8.47360357
_cell_length_c   8.76353136
_cell_angle_alpha   118.71406578
_cell_angle_beta   90.39732268
_cell_angle_gamma   90.32290565
_symmetry_Int_Tables_number   1
_chemical_formula_structural   Li3MnF6
_chemical_formula_sum   'Li9 Mn3 F18'
_cell_volume   316.51733420
_cell_formula_units_Z   3
loop_
 _symmetry_equiv_pos_site_id
 _symmetry_equiv_pos_as_xyz
  1  'x, y, z'
loop_
 _atom_site_type_symbol
 _atom_site_label
 _atom_site_symmetry_multiplicity
 _atom_site_fract_x
 _atom_site_fract_y
 _atom_site_fract_z
 _atom_site_occupancy
  Li  Li0  1  0.99287100  0.01397200  0.35457600  1
  Li  Li1  1  0.49969500  0.68737800  0.99852300  1
  Li  Li2  1  0.99645100  0.98766900  0.64454900  1
  Li  Li3  1  0.49190600  0.99087300  0.70063400  1
  Li  Li4  1  0.99614800  0.64782200  0.99477200  1
  Li  Li5  1  0.00926000  0.35849800  0.00521200  1
  Li  Li6  1  0.99826900  0.66066000  0.65096300  1
  Li  Li7  1  0.00702200  0.34527700  0.35265400  1
  Li  Li8  1  0.50891300  0.28385100  0.29088900  1
  Mn  Mn9  1  0.49032000  0.33340700  0.66588600  1
  Mn  Mn10  1  0.51011600  0.66582500  0.33343700  1
  Mn  Mn11  1  0.00005400  0.00075800  0.00010400  1
  F  F12  1  0.20942300  0.78590800  0.89956400  1
  F  F13  1  0.71748900  0.54893600  0.77746400  1
  F  F14  1  0.26176000  0.43538100  0.55830300  1
  F  F15  1  0.24975100  0.46185800  0.89590100  1
  F  F16  1  0.74177800  0.23179800  0.43901500  1
  F  F17  1  0.21650000  0.11963600  0.23518200  1
  F  F18  1  0.79154700  0.88589100  0.10169800  1
  F  F19  1  0.71395400  0.21680000  0.76002900  1
  F  F20  1  0.25558200  0.12185300  0.57532300  1
  F  F21  1  0.20637400  0.10866100  0.89004300  1
  F  F22  1  0.28916900  0.76809800  0.22458800  1
  F  F23  1  0.73920300  0.88125100  0.44526200  1
  F  F24  1  0.75360100  0.56546300  0.10608400  1
  F  F25  1  0.25783200  0.78752700  0.56067600  1
  F  F26  1  0.78129600  0.88739700  0.76597900  1
  F  F27  1  0.27968500  0.45097100  0.23933700  1
  F  F28  1  0.74068400  0.54894000  0.42462700  1
  F  F29  1  0.79335500  0.21771100  0.10874000  1
