# generated using pymatgen
data_Li6MnV3(PO4)6
_symmetry_space_group_name_H-M   'P 1'
_cell_length_a   9.06761056
_cell_length_b   8.48538080
_cell_length_c   14.64649099
_cell_angle_alpha   90.46676896
_cell_angle_beta   73.97662762
_cell_angle_gamma   62.10339553
_symmetry_Int_Tables_number   1
_chemical_formula_structural   Li6MnV3(PO4)6
_chemical_formula_sum   'Li12 Mn2 V6 P12 O48'
_cell_volume   944.69446053
_cell_formula_units_Z   2
loop_
 _symmetry_equiv_pos_site_id
 _symmetry_equiv_pos_as_xyz
  1  'x, y, z'
loop_
 _atom_site_type_symbol
 _atom_site_label
 _atom_site_symmetry_multiplicity
 _atom_site_fract_x
 _atom_site_fract_y
 _atom_site_fract_z
 _atom_site_occupancy
  Li  Li0  1  0.15016197  0.25523488  0.33182055  1
  Li  Li1  1  0.14895868  0.79600244  0.13138231  1
  Li  Li2  1  0.15137104  0.29423232  0.63115214  1
  Li  Li3  1  0.14995696  0.72482881  0.46101558  1
  Li  Li4  1  0.15013473  0.22596302  0.96124185  1
  Li  Li5  1  0.14940879  0.75501610  0.83199181  1
  Li  Li6  1  0.84983803  0.24476512  0.16817945  1
  Li  Li7  1  0.85004304  0.77517119  0.03898442  1
  Li  Li8  1  0.84986527  0.27403698  0.53875815  1
  Li  Li9  1  0.85104132  0.70399756  0.36861769  1
  Li  Li10  1  0.84862896  0.20576768  0.86884786  1
  Li  Li11  1  0.85059121  0.74498390  0.66800819  1
  Mn  Mn12  1  0.56065910  0.22330220  0.07271405  1
  Mn  Mn13  1  0.43934090  0.27669780  0.42728595  1
  V  V14  1  0.04629818  0.97602079  0.32610714  1
  V  V15  1  0.04515052  0.47801980  0.82574315  1
  V  V16  1  0.56577648  0.71816253  0.57156780  1
  V  V17  1  0.43422352  0.78183747  0.92843220  1
  V  V18  1  0.95370182  0.52397921  0.17389286  1
  V  V19  1  0.95484948  0.02198020  0.67425685  1
  P  P20  1  0.25092110  0.08483168  0.12532306  1
  P  P21  1  0.25122244  0.01865390  0.47919564  1
  P  P22  1  0.24917211  0.52197229  0.26920165  1
  P  P23  1  0.25021927  0.02053617  0.77010205  1
  P  P24  1  0.25234571  0.58372493  0.62389975  1
  P  P25  1  0.25014105  0.52130286  0.97797127  1
  P  P26  1  0.74877756  0.48134610  0.02080436  1
  P  P27  1  0.74907890  0.41516832  0.37467694  1
  P  P28  1  0.75082789  0.97802771  0.23079935  1
  P  P29  1  0.74978073  0.47946383  0.72989795  1
  P  P30  1  0.74985895  0.97869714  0.52202873  1
  P  P31  1  0.74765429  0.91627507  0.87610025  1
  O  O32  1  0.09862924  0.25921998  0.10454755  1
  O  O33  1  0.19123412  0.06729931  0.23323381  1
  O  O34  1  0.09656420  0.61614720  0.07749867  1
  O  O35  1  0.09731976  0.11549347  0.57813623  1
  O  O36  1  0.09890952  0.47725031  0.26671651  1
  O  O37  1  0.42173325  0.09012298  0.09922372  1
  O  O38  1  0.26355127  0.17678974  0.43172718  1
  O  O39  1  0.19375455  0.71933722  0.25097371  1
  O  O40  1  0.19456575  0.21801507  0.75316998  1
  O  O41  1  0.26135094  0.50321953  0.37143749  1
  O  O42  1  0.42379807  0.39062849  0.19298219  1
  O  O43  1  0.09823623  0.75737329  0.60445799  1
  O  O44  1  0.26507339  0.92650023  0.06214391  1
  O  O45  1  0.26976422  0.42358195  0.55977432  1
  O  O46  1  0.57620193  0.10937151  0.30701781  1
  O  O47  1  0.19393209  0.56520913  0.73132886  1
  O  O48  1  0.19326015  0.92295806  0.41684208  1
  O  O49  1  0.18976612  0.42670452  0.91586549  1
  O  O50  1  0.73864906  0.99678047  0.12856251  1
  O  O51  1  0.58020974  0.61489103  0.00291455  1
  O  O52  1  0.58079382  0.11322805  0.50680252  1
  O  O53  1  0.09691015  0.97864815  0.76882071  1
  O  O54  1  0.73644873  0.32321026  0.06827282  1
  O  O55  1  0.57826675  0.40987702  0.40077628  1
  O  O56  1  0.42082305  0.59321662  0.59867377  1
  O  O57  1  0.26246280  0.67998749  0.93145894  1
  O  O58  1  0.90109048  0.02274969  0.23328349  1
  O  O59  1  0.41979026  0.88510897  0.49708545  1
  O  O60  1  0.41920618  0.38677195  0.99319748  1
  O  O61  1  0.26551050  0.99839314  0.87259391  1
  O  O62  1  0.80673985  0.57704194  0.08315792  1
  O  O63  1  0.81023388  0.07329548  0.58413451  1
  O  O64  1  0.80876588  0.43270069  0.26676619  1
  O  O65  1  0.42045908  0.89025452  0.69359255  1
  O  O66  1  0.73492661  0.57349977  0.43785609  1
  O  O67  1  0.73023578  0.07641805  0.94022568  1
  O  O68  1  0.90137076  0.24078002  0.39545245  1
  O  O69  1  0.57954092  0.60974548  0.80640745  1
  O  O70  1  0.73448950  0.50160686  0.62740609  1
  O  O71  1  0.80624545  0.78066278  0.24902629  1
  O  O72  1  0.80543425  0.28198493  0.74683002  1
  O  O73  1  0.73753720  0.82001251  0.56854106  1
  O  O74  1  0.57917695  0.90678338  0.90132623  1
  O  O75  1  0.90308985  0.52135185  0.73117929  1
  O  O76  1  0.90343580  0.88385280  0.42250133  1
  O  O77  1  0.90268024  0.38450653  0.92186377  1
  O  O78  1  0.80606791  0.93479087  0.76867114  1
  O  O79  1  0.90176377  0.74262671  0.89554201  1
