# generated using pymatgen
data_Li5Mn7Fe3O20
_symmetry_space_group_name_H-M   'P 1'
_cell_length_a   6.00541892
_cell_length_b   5.94041317
_cell_length_c   24.52900798
_cell_angle_alpha   90.17538112
_cell_angle_beta   97.58103720
_cell_angle_gamma   120.30840543
_symmetry_Int_Tables_number   1
_chemical_formula_structural   Li5Mn7Fe3O20
_chemical_formula_sum   'Li10 Mn14 Fe6 O40'
_cell_volume   746.37493305
_cell_formula_units_Z   2
loop_
 _symmetry_equiv_pos_site_id
 _symmetry_equiv_pos_as_xyz
  1  'x, y, z'
loop_
 _atom_site_type_symbol
 _atom_site_label
 _atom_site_symmetry_multiplicity
 _atom_site_fract_x
 _atom_site_fract_y
 _atom_site_fract_z
 _atom_site_occupancy
  Li  Li0  1  0.84592349  0.67613050  0.02701848  1
  Li  Li1  1  0.95782301  0.73273623  0.17131109  1
  Li  Li2  1  0.64712007  0.07026134  0.22725653  1
  Li  Li3  1  0.26495997  0.88415238  0.62394024  1
  Li  Li4  1  0.46447866  0.48454896  0.42674080  1
  Li  Li5  1  0.74211844  0.12536975  0.37322363  1
  Li  Li6  1  0.53854599  0.51263765  0.57722523  1
  Li  Li7  1  0.33577938  0.91541743  0.77697754  1
  Li  Li8  1  0.05092756  0.28819204  0.82401636  1
  Li  Li9  1  0.15582550  0.31699693  0.97324831  1
  Mn  Mn10  1  0.40375686  0.70272460  0.10009170  1
  Mn  Mn11  1  0.40354712  0.20215081  0.09949129  1
  Mn  Mn12  1  0.19739189  0.59942558  0.29939022  1
  Mn  Mn13  1  0.69969899  0.60057161  0.30017499  1
  Mn  Mn14  1  0.90340339  0.20310740  0.09964862  1
  Mn  Mn15  1  0.19785263  0.09971766  0.29929737  1
  Mn  Mn16  1  0.00177472  0.00017445  0.50062870  1
  Mn  Mn17  1  0.09948962  0.79922468  0.89912843  1
  Mn  Mn18  1  0.50219258  0.00088844  0.50132041  1
  Mn  Mn19  1  0.29801865  0.39891514  0.70036307  1
  Mn  Mn20  1  0.60044102  0.80110654  0.89977067  1
  Mn  Mn21  1  0.79956255  0.40095623  0.70095957  1
  Mn  Mn22  1  0.68712508  0.59954448  0.80030554  1
  Mn  Mn23  1  0.90354992  0.20038131  0.60065277  1
  Fe  Fe24  1  0.10663785  0.80519224  0.40059999  1
  Fe  Fe25  1  0.50169867  0.99566850  0.99945734  1
  Fe  Fe26  1  0.30310060  0.40225482  0.19964618  1
  Fe  Fe27  1  0.00254423  0.50242338  0.50015019  1
  Fe  Fe28  1  0.79858394  0.90003303  0.70058356  1
  Fe  Fe29  1  0.59981190  0.29858268  0.90058888  1
  O  O30  1  0.23811237  0.86528418  0.05422062  1
  O  O31  1  0.68396337  0.86612734  0.05591270  1
  O  O32  1  0.98186784  0.76511751  0.25544745  1
  O  O33  1  0.23994193  0.36961398  0.05603345  1
  O  O34  1  0.12299147  0.53911175  0.14455051  1
  O  O35  1  0.56745279  0.53534946  0.14548641  1
  O  O36  1  0.35875286  0.93365916  0.34391072  1
  O  O37  1  0.12251883  0.08505793  0.14340928  1
  O  O38  1  0.49119492  0.71800538  0.25551328  1
  O  O39  1  0.68384155  0.31809167  0.05501931  1
  O  O40  1  0.03864494  0.26653241  0.25352845  1
  O  O41  1  0.48378576  0.26513740  0.25495002  1
  O  O42  1  0.29859842  0.67454533  0.45468342  1
  O  O43  1  0.20986066  0.86086002  0.54269342  1
  O  O44  1  0.56768017  0.03685500  0.14389790  1
  O  O45  1  0.41299640  0.43392882  0.34327532  1
  O  O46  1  0.91758930  0.93798997  0.34480319  1
  O  O47  1  0.90926963  0.48396682  0.34489559  1
  O  O48  1  0.70312577  0.88328370  0.55045816  1
  O  O49  1  0.15660369  0.31825997  0.54982807  1
  O  O50  1  0.84068339  0.67923057  0.45350851  1
  O  O51  1  0.11000705  0.51762425  0.64938507  1
  O  O52  1  0.31041593  0.12842921  0.45506801  1
  O  O53  1  0.08867361  0.07182592  0.65252154  1
  O  O54  1  0.50439965  0.72531873  0.74795510  1
  O  O55  1  0.79297036  0.14055525  0.45881661  1
  O  O56  1  0.71772044  0.32631283  0.55034838  1
  O  O57  1  0.59328997  0.53639805  0.65975946  1
  O  O58  1  0.40457985  0.94036321  0.85776913  1
  O  O59  1  0.32591348  0.67270046  0.94484276  1
  O  O60  1  0.48670790  0.28181095  0.75189446  1
  O  O61  1  0.94984180  0.72413958  0.75124128  1
  O  O62  1  0.64659447  0.07856791  0.65099839  1
  O  O63  1  0.86667299  0.91745306  0.85070868  1
  O  O64  1  0.43588180  0.47807864  0.85154227  1
  O  O65  1  0.87898958  0.47817943  0.85010604  1
  O  O66  1  0.00480786  0.26337131  0.74160847  1
  O  O67  1  0.79719949  0.66042348  0.94181884  1
  O  O68  1  0.30716212  0.12106916  0.94585096  1
  O  O69  1  0.77071733  0.12688342  0.94659606  1
