# generated using pymatgen
data_LiMn2F5
_symmetry_space_group_name_H-M   'P 1'
_cell_length_a   7.88435476
_cell_length_b   7.88435476
_cell_length_c   10.98506098
_cell_angle_alpha   88.66043040
_cell_angle_beta   88.66043040
_cell_angle_gamma   85.81857565
_symmetry_Int_Tables_number   1
_chemical_formula_structural   LiMn2F5
_chemical_formula_sum   'Li6 Mn12 F30'
_cell_volume   680.70022457
_cell_formula_units_Z   6
loop_
 _symmetry_equiv_pos_site_id
 _symmetry_equiv_pos_as_xyz
  1  'x, y, z'
loop_
 _atom_site_type_symbol
 _atom_site_label
 _atom_site_symmetry_multiplicity
 _atom_site_fract_x
 _atom_site_fract_y
 _atom_site_fract_z
 _atom_site_occupancy
  Li  Li0  1  0.71685800  0.94297400  0.55087000  1
  Li  Li1  1  0.94297400  0.71685800  0.05087000  1
  Li  Li2  1  0.65402500  0.34597500  0.75000000  1
  Li  Li3  1  0.34597500  0.65402500  0.25000000  1
  Li  Li4  1  0.05702600  0.28314200  0.94913000  1
  Li  Li5  1  0.28314200  0.05702600  0.44913000  1
  Mn  Mn6  1  0.70975300  0.98949000  0.93567600  1
  Mn  Mn7  1  0.98949000  0.70975300  0.43567600  1
  Mn  Mn8  1  0.36586400  0.99943400  0.74998000  1
  Mn  Mn9  1  0.99943400  0.36586400  0.24998000  1
  Mn  Mn10  1  0.37693000  0.65517700  0.56217400  1
  Mn  Mn11  1  0.34482300  0.62307000  0.93782600  1
  Mn  Mn12  1  0.65517700  0.37693000  0.06217400  1
  Mn  Mn13  1  0.62307000  0.34482300  0.43782600  1
  Mn  Mn14  1  0.00056600  0.63413600  0.75002000  1
  Mn  Mn15  1  0.63413600  0.00056600  0.25002000  1
  Mn  Mn16  1  0.01051000  0.29024700  0.56432400  1
  Mn  Mn17  1  0.29024700  0.01051000  0.06432400  1
  F  F18  1  0.89413300  0.78866200  0.61130000  1
  F  F19  1  0.78866200  0.89413300  0.11130000  1
  F  F20  1  0.86282700  0.77448100  0.88362600  1
  F  F21  1  0.77448100  0.86282700  0.38362600  1
  F  F22  1  0.50600000  0.86841500  0.60640900  1
  F  F23  1  0.47260400  0.86008200  0.92634900  1
  F  F24  1  0.86841500  0.50600000  0.10640900  1
  F  F25  1  0.86008200  0.47260400  0.42634900  1
  F  F26  1  0.88711300  0.40335000  0.71890400  1
  F  F27  1  0.40335000  0.88711300  0.21890400  1
  F  F28  1  0.83167800  0.21461300  0.95857800  1
  F  F29  1  0.55356200  0.46039600  0.88787900  1
  F  F30  1  0.21461300  0.83167800  0.45857800  1
  F  F31  1  0.25642600  0.74357400  0.75000000  1
  F  F32  1  0.46039600  0.55356200  0.38787900  1
  F  F33  1  0.53960400  0.44643800  0.61212100  1
  F  F34  1  0.74357400  0.25642600  0.25000000  1
  F  F35  1  0.78538700  0.16832200  0.54142200  1
  F  F36  1  0.44643800  0.53960400  0.11212100  1
  F  F37  1  0.16832200  0.78538700  0.04142200  1
  F  F38  1  0.59665000  0.11288700  0.78109600  1
  F  F39  1  0.11288700  0.59665000  0.28109600  1
  F  F40  1  0.13991800  0.52739600  0.57365100  1
  F  F41  1  0.13158500  0.49400000  0.89359100  1
  F  F42  1  0.52739600  0.13991800  0.07365100  1
  F  F43  1  0.49400000  0.13158500  0.39359100  1
  F  F44  1  0.22551900  0.13717300  0.61637400  1
  F  F45  1  0.13717300  0.22551900  0.11637400  1
  F  F46  1  0.21133800  0.10586700  0.88870000  1
  F  F47  1  0.10586700  0.21133800  0.38870000  1
