# generated using pymatgen
data_Li7Zr3Nb(TeO6)4
_symmetry_space_group_name_H-M   'P 1'
_cell_length_a   18.70535935
_cell_length_b   18.70535935
_cell_length_c   18.70535957
_cell_angle_alpha   16.15917866
_cell_angle_beta   16.15917866
_cell_angle_gamma   16.15917858
_symmetry_Int_Tables_number   1
_chemical_formula_structural   Li7Zr3Nb(TeO6)4
_chemical_formula_sum   'Li7 Zr3 Nb1 Te4 O24'
_cell_volume   441.92186209
_cell_formula_units_Z   1
loop_
 _symmetry_equiv_pos_site_id
 _symmetry_equiv_pos_as_xyz
  1  'x, y, z'
loop_
 _atom_site_type_symbol
 _atom_site_label
 _atom_site_symmetry_multiplicity
 _atom_site_fract_x
 _atom_site_fract_y
 _atom_site_fract_z
 _atom_site_occupancy
  Li  Li0  1  0.44271800  0.44271800  0.44271800  1
  Li  Li1  1  0.94195700  0.94195700  0.94195700  1
  Li  Li2  1  0.69228200  0.69228200  0.69228200  1
  Li  Li3  1  0.32173800  0.32173800  0.32173800  1
  Li  Li4  1  0.19180800  0.19180800  0.19180800  1
  Li  Li5  1  0.07198700  0.07198700  0.07198700  1
  Li  Li6  1  0.57111700  0.57111700  0.57111700  1
  Zr  Zr7  1  0.00041600  0.00041600  0.00041600  1
  Zr  Zr8  1  0.75082200  0.75082200  0.75082200  1
  Zr  Zr9  1  0.24979100  0.24979100  0.24979100  1
  Nb  Nb10  1  0.49965000  0.49965000  0.49965000  1
  Te  Te11  1  0.37546800  0.37546800  0.37546800  1
  Te  Te12  1  0.87401600  0.87401600  0.87401600  1
  Te  Te13  1  0.12566600  0.12566600  0.12566600  1
  Te  Te14  1  0.62489900  0.62489900  0.62489900  1
  O  O15  1  0.82348300  0.40889500  0.07997700  1
  O  O16  1  0.65798900  0.33290400  0.07026000  1
  O  O17  1  0.33290400  0.07026000  0.65798900  1
  O  O18  1  0.81551500  0.56774200  0.17700000  1
  O  O19  1  0.67565300  0.93451900  0.32263900  1
  O  O20  1  0.42539800  0.68496800  0.07370000  1
  O  O21  1  0.21050200  0.41168700  0.81346700  1
  O  O22  1  0.41168700  0.81346700  0.21050200  1
  O  O23  1  0.07370000  0.42539800  0.68496800  1
  O  O24  1  0.57090200  0.93011500  0.17916100  1
  O  O25  1  0.07026000  0.65798900  0.33290400  1
  O  O26  1  0.32064500  0.90711800  0.58180500  1
  O  O27  1  0.17700000  0.81551500  0.56774200  1
  O  O28  1  0.07997700  0.82348300  0.40889500  1
  O  O29  1  0.93011500  0.17916100  0.57090200  1
  O  O30  1  0.68496800  0.07370000  0.42539800  1
  O  O31  1  0.93451900  0.32263900  0.67565300  1
  O  O32  1  0.81346700  0.21050200  0.41168700  1
  O  O33  1  0.56774200  0.17700000  0.81551500  1
  O  O34  1  0.40889500  0.07997700  0.82348300  1
  O  O35  1  0.90711800  0.58180500  0.32064500  1
  O  O36  1  0.58180500  0.32064500  0.90711800  1
  O  O37  1  0.17916100  0.57090200  0.93011500  1
  O  O38  1  0.32263900  0.67565300  0.93451900  1
