# generated using pymatgen
data_Li4Ti3V5O16
_symmetry_space_group_name_H-M   'P 1'
_cell_length_a   5.90904800
_cell_length_b   5.93854839
_cell_length_c   9.67146612
_cell_angle_alpha   90.55512616
_cell_angle_beta   90.55917712
_cell_angle_gamma   119.59731833
_symmetry_Int_Tables_number   1
_chemical_formula_structural   Li4Ti3V5O16
_chemical_formula_sum   'Li4 Ti3 V5 O16'
_cell_volume   295.04453645
_cell_formula_units_Z   1
loop_
 _symmetry_equiv_pos_site_id
 _symmetry_equiv_pos_as_xyz
  1  'x, y, z'
loop_
 _atom_site_type_symbol
 _atom_site_label
 _atom_site_symmetry_multiplicity
 _atom_site_fract_x
 _atom_site_fract_y
 _atom_site_fract_z
 _atom_site_occupancy
  Li  Li0  1  0.33213600  0.66222600  0.10498600  1
  Li  Li1  1  0.00410000  0.00729500  0.00504100  1
  Li  Li2  1  0.99748500  0.99741000  0.50261500  1
  Li  Li3  1  0.66653800  0.33212800  0.60557700  1
  Ti  Ti4  1  0.16155300  0.82326000  0.78398100  1
  Ti  Ti5  1  0.66056600  0.82824900  0.78360200  1
  Ti  Ti6  1  0.82993300  0.65795500  0.27832300  1
  V  V7  1  0.32854100  0.66360400  0.51227800  1
  V  V8  1  0.17062900  0.34191900  0.78994500  1
  V  V9  1  0.66461200  0.32656900  0.01269800  1
  V  V10  1  0.81703300  0.15907500  0.28951100  1
  V  V11  1  0.34102400  0.16634100  0.29091700  1
  O  O12  1  0.16538100  0.83552000  0.39827600  1
  O  O13  1  0.47893400  0.95960200  0.66217000  1
  O  O14  1  0.34827300  0.69300700  0.89781100  1
  O  O15  1  0.99405800  0.99117700  0.68772500  1
  O  O16  1  0.98894800  0.99026800  0.18964600  1
  O  O17  1  0.67195900  0.83707900  0.39449600  1
  O  O18  1  0.03571300  0.52563000  0.66433000  1
  O  O19  1  0.48458500  0.52545100  0.66098300  1
  O  O20  1  0.84041900  0.67990900  0.89500600  1
  O  O21  1  0.15452500  0.32387400  0.39683500  1
  O  O22  1  0.51980000  0.47683500  0.16112800  1
  O  O23  1  0.95991100  0.47930800  0.16177100  1
  O  O24  1  0.68673000  0.35190000  0.40018800  1
  O  O25  1  0.32907100  0.16592700  0.89857400  1
  O  O26  1  0.52914300  0.03192200  0.16624400  1
  O  O27  1  0.83810000  0.16655700  0.89750300  1
