# generated using pymatgen
data_LiMn2(BO3)2
_symmetry_space_group_name_H-M   'P 1'
_cell_length_a   5.34945300
_cell_length_b   10.27205304
_cell_length_c   13.93197611
_cell_angle_alpha   90.57046513
_cell_angle_beta   100.86590585
_cell_angle_gamma   91.95809954
_symmetry_Int_Tables_number   1
_chemical_formula_structural   LiMn2(BO3)2
_chemical_formula_sum   'Li6 Mn12 B12 O36'
_cell_volume   751.29064476
_cell_formula_units_Z   6
loop_
 _symmetry_equiv_pos_site_id
 _symmetry_equiv_pos_as_xyz
  1  'x, y, z'
loop_
 _atom_site_type_symbol
 _atom_site_label
 _atom_site_symmetry_multiplicity
 _atom_site_fract_x
 _atom_site_fract_y
 _atom_site_fract_z
 _atom_site_occupancy
  Li  Li0  1  0.14811700  0.08031900  0.00200300  1
  Li  Li1  1  0.44678400  0.66965500  0.66998500  1
  Li  Li2  1  0.47972900  0.18466400  0.65876900  1
  Li  Li3  1  0.80391500  0.67854400  0.34144200  1
  Li  Li4  1  0.79160100  0.15792600  0.32334600  1
  Li  Li5  1  0.86897300  0.41311500  0.00886300  1
  Mn  Mn6  1  0.05760000  0.13370500  0.76971300  1
  Mn  Mn7  1  0.29684300  0.87675400  0.87451000  1
  Mn  Mn8  1  0.05536700  0.38598600  0.43222200  1
  Mn  Mn9  1  0.25652000  0.63086500  0.21250700  1
  Mn  Mn10  1  0.62101300  0.63200500  0.90755600  1
  Mn  Mn11  1  0.36562200  0.13023200  0.45334600  1
  Mn  Mn12  1  0.62404600  0.88838900  0.56908400  1
  Mn  Mn13  1  0.39954200  0.36739700  0.11715000  1
  Mn  Mn14  1  0.75177500  0.38298800  0.78601000  1
  Mn  Mn15  1  0.90241400  0.63287000  0.54433800  1
  Mn  Mn16  1  0.71031800  0.11635900  0.09940200  1
  Mn  Mn17  1  0.95753400  0.87750900  0.21937700  1
  B  B18  1  0.05037800  0.62920500  0.77286900  1
  B  B19  1  0.06229100  0.87691500  0.45129200  1
  B  B20  1  0.28451400  0.37860800  0.89116100  1
  B  B21  1  0.37300900  0.63853900  0.44243000  1
  B  B22  1  0.27368200  0.11669100  0.22501000  1
  B  B23  1  0.62463900  0.13090100  0.87991500  1
  B  B24  1  0.39551800  0.87345700  0.10445500  1
  B  B25  1  0.73269800  0.87040700  0.79507300  1
  B  B26  1  0.60867000  0.37889000  0.55128800  1
  B  B27  1  0.74047700  0.62204700  0.12621900  1
  B  B28  1  0.94047100  0.13469300  0.54926700  1
  B  B29  1  0.93380900  0.36890100  0.21007400  1
  O  O30  1  0.12569200  0.34078500  0.80317100  1
  O  O31  1  0.19784900  0.37735000  0.97653100  1
  O  O32  1  0.22065600  0.68689700  0.85233200  1
  O  O33  1  0.10390400  0.62857400  0.68199100  1
  O  O34  1  0.99495200  0.16659800  0.45752200  1
  O  O35  1  0.12625900  0.13559100  0.62985800  1
  O  O36  1  0.11801600  0.59695800  0.44208200  1
  O  O37  1  0.01681600  0.06711300  0.21740900  1
  O  O38  1  0.37957600  0.07321900  0.87209700  1
  O  O39  1  0.29514600  0.94627800  0.47381200  1
  O  O40  1  0.15327600  0.44417600  0.20279500  1
  O  O41  1  0.53939300  0.41983900  0.88938800  1
  O  O42  1  0.30217100  0.81793500  0.18403100  1
  O  O43  1  0.65390300  0.83508900  0.88236200  1
  O  O44  1  0.24318400  0.89912900  0.01856500  1
  O  O45  1  0.57773300  0.84621700  0.70757200  1
  O  O46  1  0.43335200  0.31881400  0.47317600  1
  O  O47  1  0.57785700  0.36557300  0.64428500  1
  O  O48  1  0.52586100  0.67297200  0.53437400  1
  O  O49  1  0.46294600  0.64199500  0.35844000  1
  O  O50  1  0.34235800  0.15767600  0.13747700  1
  O  O51  1  0.67871300  0.19003600  0.79346700  1
  O  O52  1  0.43230700  0.12273400  0.31265400  1
  O  O53  1  0.80067700  0.13102700  0.96285900  1
  O  O54  1  0.81927400  0.57278700  0.79248300  1
  O  O55  1  0.50666000  0.57287800  0.13858700  1
  O  O56  1  0.68670100  0.09835100  0.55505600  1
  O  O57  1  0.97003400  0.93284200  0.80204700  1
  O  O58  1  0.65202400  0.91301000  0.12025600  1
  O  O59  1  0.81124800  0.44947100  0.52416300  1
  O  O60  1  0.96833900  0.82123000  0.53062100  1
  O  O61  1  0.92973700  0.86039900  0.35951100  1
  O  O62  1  0.78539300  0.32232600  0.12180500  1
  O  O63  1  0.87014200  0.33815900  0.29608700  1
  O  O64  1  0.89360300  0.68268900  0.21178800  1
  O  O65  1  0.83129500  0.60461400  0.04374800  1
