# generated using pymatgen
data_Li2CrS4
_symmetry_space_group_name_H-M   'P 1'
_cell_length_a   6.78227747
_cell_length_b   6.78227747
_cell_length_c   5.89422555
_cell_angle_alpha   65.12850990
_cell_angle_beta   65.12850990
_cell_angle_gamma   29.28227119
_symmetry_Int_Tables_number   1
_chemical_formula_structural   Li2CrS4
_chemical_formula_sum   'Li2 Cr1 S4'
_cell_volume   119.42815768
_cell_formula_units_Z   1
loop_
 _symmetry_equiv_pos_site_id
 _symmetry_equiv_pos_as_xyz
  1  'x, y, z'
loop_
 _atom_site_type_symbol
 _atom_site_label
 _atom_site_symmetry_multiplicity
 _atom_site_fract_x
 _atom_site_fract_y
 _atom_site_fract_z
 _atom_site_occupancy
  Li  Li0  1  0.70839000  0.70839000  0.76421000  1
  Li  Li1  1  0.29161000  0.29161000  0.23579000  1
  Cr  Cr2  1  0.00000000  0.00000000  0.50000000  1
  S  S3  1  0.63465100  0.63465100  0.43902500  1
  S  S4  1  0.06315200  0.06315200  0.05436300  1
  S  S5  1  0.93684800  0.93684800  0.94563700  1
  S  S6  1  0.36534900  0.36534900  0.56097500  1
