# generated using pymatgen
data_Li3VS4
_symmetry_space_group_name_H-M   'P 1'
_cell_length_a   12.67818200
_cell_length_b   12.67818200
_cell_length_c   7.41486500
_cell_angle_alpha   90.00000000
_cell_angle_beta   90.00000000
_cell_angle_gamma   90.00000000
_symmetry_Int_Tables_number   1
_chemical_formula_structural   Li3VS4
_chemical_formula_sum   'Li24 V8 S32'
_cell_volume   1191.83795639
_cell_formula_units_Z   8
loop_
 _symmetry_equiv_pos_site_id
 _symmetry_equiv_pos_as_xyz
  1  'x, y, z'
loop_
 _atom_site_type_symbol
 _atom_site_label
 _atom_site_symmetry_multiplicity
 _atom_site_fract_x
 _atom_site_fract_y
 _atom_site_fract_z
 _atom_site_occupancy
  Li  Li0  1  0.00000000  0.00000000  0.20879100  1
  Li  Li1  1  0.00000000  0.00000000  0.79120900  1
  Li  Li2  1  0.50000000  0.00000000  0.08324600  1
  Li  Li3  1  0.50000000  0.00000000  0.58324600  1
  Li  Li4  1  0.25422000  0.04801300  0.36082200  1
  Li  Li5  1  0.74692800  0.19994500  0.06933200  1
  Li  Li6  1  0.45198700  0.24578000  0.86082200  1
  Li  Li7  1  0.19994500  0.25307200  0.93066800  1
  Li  Li8  1  0.69994500  0.24692800  0.56933200  1
  Li  Li9  1  0.95198700  0.25422000  0.63917800  1
  Li  Li10  1  0.24692800  0.30005500  0.43066800  1
  Li  Li11  1  0.75422000  0.45198700  0.13917800  1
  Li  Li12  1  0.50000000  0.50000000  0.29120900  1
  Li  Li13  1  0.50000000  0.50000000  0.70879100  1
  Li  Li14  1  0.00000000  0.50000000  0.41675400  1
  Li  Li15  1  0.00000000  0.50000000  0.91675400  1
  Li  Li16  1  0.24578000  0.54801300  0.13917800  1
  Li  Li17  1  0.75307200  0.69994500  0.43066800  1
  Li  Li18  1  0.04801300  0.74578000  0.63917800  1
  Li  Li19  1  0.30005500  0.75307200  0.56933200  1
  Li  Li20  1  0.80005500  0.74692800  0.93066800  1
  Li  Li21  1  0.54801300  0.75422000  0.86082200  1
  Li  Li22  1  0.25307200  0.80005500  0.06933200  1
  Li  Li23  1  0.74578000  0.95198700  0.36082200  1
  V  V24  1  0.73694000  0.01149300  0.78244600  1
  V  V25  1  0.51149300  0.23694000  0.28244600  1
  V  V26  1  0.01149300  0.26306000  0.21755400  1
  V  V27  1  0.23694000  0.48850700  0.71755400  1
  V  V28  1  0.76306000  0.51149300  0.71755400  1
  V  V29  1  0.98850700  0.73694000  0.21755400  1
  V  V30  1  0.48850700  0.76306000  0.28244600  1
  V  V31  1  0.26306000  0.98850700  0.78244600  1
  S  S32  1  0.18308300  0.99981800  0.03584900  1
  S  S33  1  0.84609200  0.08201900  0.59611900  1
  S  S34  1  0.60059000  0.11145500  0.82284200  1
  S  S35  1  0.61145500  0.10059000  0.32284200  1
  S  S36  1  0.30967600  0.14061400  0.67517900  1
  S  S37  1  0.08201900  0.15390800  0.40388100  1
  S  S38  1  0.00018200  0.18308300  0.96415100  1
  S  S39  1  0.35938600  0.19032400  0.17517900  1
  S  S40  1  0.85938600  0.30967600  0.32482100  1
  S  S41  1  0.50018200  0.31691700  0.53584900  1
  S  S42  1  0.58201900  0.34609200  0.09611900  1
  S  S43  1  0.80967600  0.35938600  0.82482100  1
  S  S44  1  0.11145500  0.39941000  0.17715800  1
  S  S45  1  0.10059000  0.38854500  0.67715800  1
  S  S46  1  0.34609200  0.41798100  0.90388100  1
  S  S47  1  0.68308300  0.50018200  0.46415100  1
  S  S48  1  0.31691700  0.49981800  0.46415100  1
  S  S49  1  0.65390800  0.58201900  0.90388100  1
  S  S50  1  0.89941000  0.61145500  0.67715800  1
  S  S51  1  0.88854500  0.60059000  0.17715800  1
  S  S52  1  0.19032400  0.64061400  0.82482100  1
  S  S53  1  0.41798100  0.65390800  0.09611900  1
  S  S54  1  0.49981800  0.68308300  0.53584900  1
  S  S55  1  0.14061400  0.69032400  0.32482100  1
  S  S56  1  0.64061400  0.80967600  0.17517900  1
  S  S57  1  0.99981800  0.81691700  0.96415100  1
  S  S58  1  0.91798100  0.84609200  0.40388100  1
  S  S59  1  0.69032400  0.85938600  0.67517900  1
  S  S60  1  0.38854500  0.89941000  0.32284200  1
  S  S61  1  0.39941000  0.88854500  0.82284200  1
  S  S62  1  0.15390800  0.91798100  0.59611900  1
  S  S63  1  0.81691700  0.00018200  0.03584900  1
