# generated using pymatgen
data_Li2AlFeO4
_symmetry_space_group_name_H-M   'P 1'
_cell_length_a   5.04583400
_cell_length_b   6.40400200
_cell_length_c   10.92380300
_cell_angle_alpha   90.00000000
_cell_angle_beta   90.00000000
_cell_angle_gamma   90.00000000
_symmetry_Int_Tables_number   1
_chemical_formula_structural   Li2AlFeO4
_chemical_formula_sum   'Li8 Al4 Fe4 O16'
_cell_volume   352.98664718
_cell_formula_units_Z   4
loop_
 _symmetry_equiv_pos_site_id
 _symmetry_equiv_pos_as_xyz
  1  'x, y, z'
loop_
 _atom_site_type_symbol
 _atom_site_label
 _atom_site_symmetry_multiplicity
 _atom_site_fract_x
 _atom_site_fract_y
 _atom_site_fract_z
 _atom_site_occupancy
  Li  Li0  1  0.75566200  0.00400700  0.16734400  1
  Li  Li1  1  0.75618400  0.24719500  0.91470000  1
  Li  Li2  1  0.75618400  0.25280500  0.41470000  1
  Li  Li3  1  0.75566200  0.49599300  0.66734400  1
  Li  Li4  1  0.25566200  0.50400700  0.33265600  1
  Li  Li5  1  0.25618400  0.74719500  0.58530000  1
  Li  Li6  1  0.25618400  0.75280500  0.08530000  1
  Li  Li7  1  0.25566200  0.99599300  0.83265600  1
  Al  Al8  1  0.26202200  0.00667000  0.33276000  1
  Al  Al9  1  0.26202200  0.49333000  0.83276000  1
  Al  Al10  1  0.76202200  0.50667000  0.16724000  1
  Al  Al11  1  0.76202200  0.99333000  0.66724000  1
  Fe  Fe12  1  0.25966800  0.24352100  0.58452500  1
  Fe  Fe13  1  0.25966800  0.25647900  0.08452500  1
  Fe  Fe14  1  0.75966800  0.74352100  0.91547500  1
  Fe  Fe15  1  0.75966800  0.75647900  0.41547500  1
  O  O16  1  0.11595000  0.00498600  0.66371500  1
  O  O17  1  0.15645500  0.01562700  0.17620400  1
  O  O18  1  0.15899100  0.26491000  0.91589300  1
  O  O19  1  0.63819400  0.22360200  0.59347000  1
  O  O20  1  0.63819400  0.27639800  0.09347000  1
  O  O21  1  0.15899100  0.23509000  0.41589300  1
  O  O22  1  0.15645500  0.48437300  0.67620400  1
  O  O23  1  0.11595000  0.49501400  0.16371500  1
  O  O24  1  0.61595000  0.50498600  0.83628500  1
  O  O25  1  0.65645500  0.51562700  0.32379600  1
  O  O26  1  0.65899100  0.76491000  0.58410700  1
  O  O27  1  0.13819400  0.72360200  0.90653000  1
  O  O28  1  0.13819400  0.77639800  0.40653000  1
  O  O29  1  0.65899100  0.73509000  0.08410700  1
  O  O30  1  0.65645500  0.98437300  0.82379600  1
  O  O31  1  0.61595000  0.99501400  0.33628500  1
