# generated using pymatgen
data_Li3Mn4(BO3)4
_symmetry_space_group_name_H-M   'P 1'
_cell_length_a   5.27323200
_cell_length_b   8.26842184
_cell_length_c   11.79579932
_cell_angle_alpha   102.03139617
_cell_angle_beta   89.95155810
_cell_angle_gamma   91.04865363
_symmetry_Int_Tables_number   1
_chemical_formula_structural   Li3Mn4(BO3)4
_chemical_formula_sum   'Li6 Mn8 B8 O24'
_cell_volume   502.92806936
_cell_formula_units_Z   2
loop_
 _symmetry_equiv_pos_site_id
 _symmetry_equiv_pos_as_xyz
  1  'x, y, z'
loop_
 _atom_site_type_symbol
 _atom_site_label
 _atom_site_symmetry_multiplicity
 _atom_site_fract_x
 _atom_site_fract_y
 _atom_site_fract_z
 _atom_site_occupancy
  Li  Li0  1  0.33827200  0.72680000  0.03082800  1
  Li  Li1  1  0.84198900  0.21942400  0.26925600  1
  Li  Li2  1  0.34606800  0.72706900  0.52009300  1
  Li  Li3  1  0.65393200  0.27293100  0.47990700  1
  Li  Li4  1  0.15801100  0.78057600  0.73074400  1
  Li  Li5  1  0.66172800  0.27320000  0.96917200  1
  Mn  Mn6  1  0.17812900  0.42705600  0.09180800  1
  Mn  Mn7  1  0.31738100  0.07489200  0.16319700  1
  Mn  Mn8  1  0.68340500  0.91059100  0.32932900  1
  Mn  Mn9  1  0.83134700  0.57684300  0.40697700  1
  Mn  Mn10  1  0.16865300  0.42315700  0.59302300  1
  Mn  Mn11  1  0.31659500  0.08940900  0.67067100  1
  Mn  Mn12  1  0.68261900  0.92510800  0.83680300  1
  Mn  Mn13  1  0.82187100  0.57294400  0.90819200  1
  B  B14  1  0.82822200  0.91004100  0.07548600  1
  B  B15  1  0.67706500  0.58639400  0.16387800  1
  B  B16  1  0.33141800  0.40292100  0.33418700  1
  B  B17  1  0.17680400  0.10370100  0.41610200  1
  B  B18  1  0.82319600  0.89629900  0.58389800  1
  B  B19  1  0.66858200  0.59707900  0.66581300  1
  B  B20  1  0.32293500  0.41360600  0.83612200  1
  B  B21  1  0.17177800  0.08995900  0.92451400  1
  O  O22  1  0.08484100  0.89070200  0.07524900  1
  O  O23  1  0.32233400  0.18265000  0.01544600  1
  O  O24  1  0.80110100  0.47735000  0.07444100  1
  O  O25  1  0.42424700  0.61379300  0.15552800  1
  O  O26  1  0.81522700  0.67310800  0.25793500  1
  O  O27  1  0.31771500  0.01413000  0.32508800  1
  O  O28  1  0.70521900  0.01310100  0.16740800  1
  O  O29  1  0.18205100  0.31450600  0.24212200  1
  O  O30  1  0.58719900  0.37499100  0.33754100  1
  O  O31  1  0.21136000  0.51091500  0.42426500  1
  O  O32  1  0.68611900  0.81236100  0.48640800  1
  O  O33  1  0.91812300  0.11974700  0.40898100  1
  O  O34  1  0.08187700  0.88025300  0.59101900  1
  O  O35  1  0.31388100  0.18763900  0.51359200  1
  O  O36  1  0.78864000  0.48908500  0.57573500  1
  O  O37  1  0.41280100  0.62500900  0.66245900  1
  O  O38  1  0.81794900  0.68549400  0.75787800  1
  O  O39  1  0.29478100  0.98689900  0.83259200  1
  O  O40  1  0.68228500  0.98587000  0.67491200  1
  O  O41  1  0.18477300  0.32689200  0.74206500  1
  O  O42  1  0.57575300  0.38620700  0.84447200  1
  O  O43  1  0.19889900  0.52265000  0.92555900  1
  O  O44  1  0.67766600  0.81735000  0.98455400  1
  O  O45  1  0.91515900  0.10929800  0.92475100  1
