# generated using pymatgen
data_Li4ZrO4
_symmetry_space_group_name_H-M   'P 1'
_cell_length_a   14.71317900
_cell_length_b   5.53179300
_cell_length_c   5.57670532
_cell_angle_alpha   63.28070817
_cell_angle_beta   90.00000000
_cell_angle_gamma   90.00000000
_symmetry_Int_Tables_number   1
_chemical_formula_structural   Li4ZrO4
_chemical_formula_sum   'Li16 Zr4 O16'
_cell_volume   405.42320086
_cell_formula_units_Z   4
loop_
 _symmetry_equiv_pos_site_id
 _symmetry_equiv_pos_as_xyz
  1  'x, y, z'
loop_
 _atom_site_type_symbol
 _atom_site_label
 _atom_site_symmetry_multiplicity
 _atom_site_fract_x
 _atom_site_fract_y
 _atom_site_fract_z
 _atom_site_occupancy
  Li  Li0  1  0.79063200  0.29294300  0.25354600  1
  Li  Li1  1  0.00166000  0.29620800  0.23677400  1
  Li  Li2  1  0.22804200  0.14452900  0.27928900  1
  Li  Li3  1  0.38801300  0.25223900  0.33502400  1
  Li  Li4  1  0.70936800  0.79294300  0.25354600  1
  Li  Li5  1  0.49834000  0.79620800  0.23677400  1
  Li  Li6  1  0.27195800  0.64452900  0.27928900  1
  Li  Li7  1  0.11198700  0.75223900  0.33502400  1
  Li  Li8  1  0.88801300  0.24776100  0.66497600  1
  Li  Li9  1  0.72804200  0.35547100  0.72071100  1
  Li  Li10  1  0.50166000  0.20379200  0.76322600  1
  Li  Li11  1  0.29063200  0.20705700  0.74645400  1
  Li  Li12  1  0.61198700  0.74776100  0.66497600  1
  Li  Li13  1  0.77195800  0.85547100  0.72071100  1
  Li  Li14  1  0.99834000  0.70379200  0.76322600  1
  Li  Li15  1  0.20936800  0.70705700  0.74645400  1
  Zr  Zr16  1  0.60320500  0.35572000  0.21481400  1
  Zr  Zr17  1  0.89679500  0.85572000  0.21481400  1
  Zr  Zr18  1  0.10320500  0.14428000  0.78518600  1
  Zr  Zr19  1  0.39679500  0.64428000  0.78518600  1
  O  O20  1  0.69977500  0.53484100  0.94445600  1
  O  O21  1  0.48882600  0.20380500  0.11948000  1
  O  O22  1  0.80022500  0.03484100  0.94445600  1
  O  O23  1  0.01117400  0.70380500  0.11948000  1
  O  O24  1  0.68377500  0.04142100  0.42509700  1
  O  O25  1  0.59831400  0.53217300  0.45938900  1
  O  O26  1  0.09831400  0.96782700  0.54061100  1
  O  O27  1  0.81622500  0.54142100  0.42509700  1
  O  O28  1  0.18377500  0.45857900  0.57490300  1
  O  O29  1  0.90168600  0.03217300  0.45938900  1
  O  O30  1  0.40168600  0.46782700  0.54061100  1
  O  O31  1  0.31622500  0.95857900  0.57490300  1
  O  O32  1  0.98882600  0.29619500  0.88052000  1
  O  O33  1  0.19977500  0.96515900  0.05554400  1
  O  O34  1  0.51117400  0.79619500  0.88052000  1
  O  O35  1  0.30022500  0.46515900  0.05554400  1
