# generated using pymatgen
data_Li4Ti3Nb2Fe3O16
_symmetry_space_group_name_H-M   'P 1'
_cell_length_a   5.99242590
_cell_length_b   19.80300363
_cell_length_c   6.09403788
_cell_angle_alpha   90.88196569
_cell_angle_beta   119.45284049
_cell_angle_gamma   90.01290309
_symmetry_Int_Tables_number   1
_chemical_formula_structural   Li4Ti3Nb2Fe3O16
_chemical_formula_sum   'Li8 Ti6 Nb4 Fe6 O32'
_cell_volume   629.60599818
_cell_formula_units_Z   2
loop_
 _symmetry_equiv_pos_site_id
 _symmetry_equiv_pos_as_xyz
  1  'x, y, z'
loop_
 _atom_site_type_symbol
 _atom_site_label
 _atom_site_symmetry_multiplicity
 _atom_site_fract_x
 _atom_site_fract_y
 _atom_site_fract_z
 _atom_site_occupancy
  Li  Li0  1  0.66321200  0.45245700  0.32627700  1
  Li  Li1  1  0.66321700  0.95246100  0.32624900  1
  Li  Li2  1  0.00183900  0.49308300  0.00408500  1
  Li  Li3  1  0.00188100  0.99308300  0.00410700  1
  Li  Li4  1  0.00338100  0.24658200  0.00666700  1
  Li  Li5  1  0.00339000  0.74658200  0.00667800  1
  Li  Li6  1  0.33142800  0.20404700  0.66308000  1
  Li  Li7  1  0.33147100  0.70405100  0.66308800  1
  Ti  Ti8  1  0.17738600  0.36722000  0.35446500  1
  Ti  Ti9  1  0.17745900  0.86722000  0.35447600  1
  Ti  Ti10  1  0.84431400  0.11006100  0.18976600  1
  Ti  Ti11  1  0.84433800  0.61005400  0.18990400  1
  Ti  Ti12  1  0.34573600  0.10979700  0.19092900  1
  Ti  Ti13  1  0.34560500  0.60981300  0.19076600  1
  Nb  Nb14  1  0.66601200  0.24946800  0.33219100  1
  Nb  Nb15  1  0.66607800  0.74946900  0.33222100  1
  Nb  Nb16  1  0.35152400  0.49375100  0.70335600  1
  Nb  Nb17  1  0.35141300  0.99374400  0.70331300  1
  Fe  Fe18  1  0.83005100  0.60501400  0.66030500  1
  Fe  Fe19  1  0.66271900  0.85383100  0.83060400  1
  Fe  Fe20  1  0.16784400  0.85385700  0.83053700  1
  Fe  Fe21  1  0.82984300  0.10500800  0.66034700  1
  Fe  Fe22  1  0.66273500  0.35383200  0.83059300  1
  Fe  Fe23  1  0.16780400  0.35386100  0.83051900  1
  O  O24  1  0.52079500  0.16692900  0.04104300  1
  O  O25  1  0.52075300  0.66693200  0.04104600  1
  O  O26  1  0.64861000  0.05377300  0.29676200  1
  O  O27  1  0.64852000  0.55377500  0.29673200  1
  O  O28  1  0.00906700  0.15231600  0.01797000  1
  O  O29  1  0.00908100  0.65231900  0.01796700  1
  O  O30  1  0.00773400  0.39910100  0.01540600  1
  O  O31  1  0.00774000  0.89910300  0.01542700  1
  O  O32  1  0.16286700  0.05235600  0.32523900  1
  O  O33  1  0.16278300  0.55235700  0.32523800  1
  O  O34  1  0.83142000  0.28642000  0.66281500  1
  O  O35  1  0.83143200  0.78641500  0.66286700  1
  O  O36  1  0.31812300  0.30629100  0.63631500  1
  O  O37  1  0.31817300  0.80629900  0.63646500  1
  O  O38  1  0.47979500  0.42885800  0.95938200  1
  O  O39  1  0.47984000  0.92885500  0.95934000  1
  O  O40  1  0.83906600  0.29442400  0.18256400  1
  O  O41  1  0.83909300  0.79442900  0.18261000  1
  O  O42  1  0.34356800  0.29449500  0.18253200  1
  O  O43  1  0.34355400  0.79447300  0.18261400  1
  O  O44  1  0.96184100  0.16888600  0.46410600  1
  O  O45  1  0.96193100  0.66896500  0.46395000  1
  O  O46  1  0.50149600  0.16912000  0.46355800  1
  O  O47  1  0.50174600  0.66905000  0.46370800  1
  O  O48  1  0.46400800  0.42504000  0.49478200  1
  O  O49  1  0.46403000  0.92502400  0.49469200  1
  O  O50  1  0.03093900  0.42507800  0.49473600  1
  O  O51  1  0.03096800  0.92509600  0.49472200  1
  O  O52  1  0.66706500  0.04586600  0.83500400  1
  O  O53  1  0.66702400  0.54585800  0.83510900  1
  O  O54  1  0.16851100  0.04578700  0.83543100  1
  O  O55  1  0.16834400  0.54580700  0.83535000  1
