# generated using pymatgen
data_Li2VF4
_symmetry_space_group_name_H-M   'P 1'
_cell_length_a   8.20699820
_cell_length_b   8.20699820
_cell_length_c   8.20699856
_cell_angle_alpha   98.92065983
_cell_angle_beta   98.92065983
_cell_angle_gamma   98.92066989
_symmetry_Int_Tables_number   1
_chemical_formula_structural   Li2VF4
_chemical_formula_sum   'Li12 V6 F24'
_cell_volume   530.32568671
_cell_formula_units_Z   6
loop_
 _symmetry_equiv_pos_site_id
 _symmetry_equiv_pos_as_xyz
  1  'x, y, z'
loop_
 _atom_site_type_symbol
 _atom_site_label
 _atom_site_symmetry_multiplicity
 _atom_site_fract_x
 _atom_site_fract_y
 _atom_site_fract_z
 _atom_site_occupancy
  Li  Li0  1  0.71936900  0.16950100  0.88823100  1
  Li  Li1  1  0.83049900  0.11176900  0.28063100  1
  Li  Li2  1  0.56069000  0.24308500  0.47278500  1
  Li  Li3  1  0.11176900  0.28063100  0.83049900  1
  Li  Li4  1  0.52721500  0.43931000  0.75691500  1
  Li  Li5  1  0.24308500  0.47278500  0.56069000  1
  Li  Li6  1  0.75691500  0.52721500  0.43931000  1
  Li  Li7  1  0.47278500  0.56069000  0.24308500  1
  Li  Li8  1  0.88823100  0.71936900  0.16950100  1
  Li  Li9  1  0.43931000  0.75691500  0.52721500  1
  Li  Li10  1  0.16950100  0.88823100  0.71936900  1
  Li  Li11  1  0.28063100  0.83049900  0.11176900  1
  V  V12  1  0.18006500  0.08497200  0.44497700  1
  V  V13  1  0.44497700  0.18006500  0.08497200  1
  V  V14  1  0.91502800  0.55502300  0.81993500  1
  V  V15  1  0.08497200  0.44497700  0.18006500  1
  V  V16  1  0.55502300  0.81993500  0.91502800  1
  V  V17  1  0.81993500  0.91502800  0.55502300  1
  F  F18  1  0.70637400  0.09292800  0.44921300  1
  F  F19  1  0.66664600  0.05729200  0.08194300  1
  F  F20  1  0.91805700  0.33335400  0.94270900  1
  F  F21  1  0.05729200  0.08194300  0.66664600  1
  F  F22  1  0.55078700  0.29362600  0.90707200  1
  F  F23  1  0.32320000  0.04830200  0.25211900  1
  F  F24  1  0.71192200  0.43101600  0.63160700  1
  F  F25  1  0.36839300  0.28807800  0.56898400  1
  F  F26  1  0.56898400  0.36839300  0.28807800  1
  F  F27  1  0.04830200  0.25211900  0.32320000  1
  F  F28  1  0.09292800  0.44921300  0.70637400  1
  F  F29  1  0.25211900  0.32320000  0.04830200  1
  F  F30  1  0.74788200  0.67680000  0.95169800  1
  F  F31  1  0.90707200  0.55078700  0.29362600  1
  F  F32  1  0.95169800  0.74788100  0.67680000  1
  F  F33  1  0.43101600  0.63160700  0.71192200  1
  F  F34  1  0.63160700  0.71192200  0.43101600  1
  F  F35  1  0.28807800  0.56898400  0.36839300  1
  F  F36  1  0.67680000  0.95169800  0.74788100  1
  F  F37  1  0.44921300  0.70637400  0.09292800  1
  F  F38  1  0.94270900  0.91805700  0.33335400  1
  F  F39  1  0.08194300  0.66664600  0.05729100  1
  F  F40  1  0.33335400  0.94270900  0.91805700  1
  F  F41  1  0.29362600  0.90707200  0.55078700  1
