# generated using pymatgen
data_Li2Fe2SiO6
_symmetry_space_group_name_H-M   'P 1'
_cell_length_a   15.72518046
_cell_length_b   11.64850566
_cell_length_c   11.59233299
_cell_angle_alpha   85.15955456
_cell_angle_beta   47.57092802
_cell_angle_gamma   47.26951742
_symmetry_Int_Tables_number   1
_chemical_formula_structural   Li2Fe2SiO6
_chemical_formula_sum   'Li12 Fe12 Si6 O36'
_cell_volume   834.69678328
_cell_formula_units_Z   6
loop_
 _symmetry_equiv_pos_site_id
 _symmetry_equiv_pos_as_xyz
  1  'x, y, z'
loop_
 _atom_site_type_symbol
 _atom_site_label
 _atom_site_symmetry_multiplicity
 _atom_site_fract_x
 _atom_site_fract_y
 _atom_site_fract_z
 _atom_site_occupancy
  Li  Li0  1  0.99391600  0.50608400  0.99391600  1
  Li  Li1  1  0.66431000  0.83569000  0.66431000  1
  Li  Li2  1  0.44926700  0.91297400  0.09312300  1
  Li  Li3  1  0.07146200  0.21639600  0.78410800  1
  Li  Li4  1  0.03360400  0.17853800  0.32196600  1
  Li  Li5  1  0.33702600  0.80073300  0.70536400  1
  Li  Li6  1  0.74391600  0.25608400  0.74391600  1
  Li  Li7  1  0.41431000  0.58569000  0.41431000  1
  Li  Li8  1  0.70536400  0.15687700  0.33702600  1
  Li  Li9  1  0.32196600  0.46589200  0.03360400  1
  Li  Li10  1  0.78410800  0.92803400  0.07146200  1
  Li  Li11  1  0.09312300  0.54463600  0.44926700  1
  Fe  Fe12  1  0.15108200  0.34891800  0.15108200  1
  Fe  Fe13  1  0.49090100  0.00909900  0.49090100  1
  Fe  Fe14  1  0.95568400  0.42969200  0.57917600  1
  Fe  Fe15  1  0.56336900  0.72361500  0.28722400  1
  Fe  Fe16  1  0.52638500  0.68663100  0.82420800  1
  Fe  Fe17  1  0.82030800  0.29431600  0.21455200  1
  Fe  Fe18  1  0.90108200  0.09891800  0.90108200  1
  Fe  Fe19  1  0.24090100  0.75909900  0.24090100  1
  Fe  Fe20  1  0.21455200  0.67082400  0.82030800  1
  Fe  Fe21  1  0.82420800  0.96277600  0.52638500  1
  Fe  Fe22  1  0.28722400  0.42579200  0.56336900  1
  Fe  Fe23  1  0.57917600  0.03544800  0.95568300  1
  Si  Si24  1  0.87266800  0.62733200  0.87266800  1
  Si  Si25  1  0.22940500  0.10551800  0.91243300  1
  Si  Si26  1  0.14448200  0.02059500  0.49735700  1
  Si  Si27  1  0.62266800  0.37733200  0.62266800  1
  Si  Si28  1  0.49735700  0.33756700  0.14448200  1
  Si  Si29  1  0.91243300  0.75264300  0.22940500  1
  O  O30  1  0.97409100  0.51976700  0.42988300  1
  O  O31  1  0.26876000  0.19436200  0.79764000  1
  O  O32  1  0.03165900  0.46639000  0.63116200  1
  O  O33  1  0.84752500  0.53743300  0.99135100  1
  O  O34  1  0.38034600  0.98600000  0.49952400  1
  O  O35  1  0.07960900  0.26326900  0.15001600  1
  O  O36  1  0.66264400  0.64593300  0.83132500  1
  O  O37  1  0.46749200  0.85310400  0.75131900  1
  O  O38  1  0.13266100  0.14584500  0.41073300  1
  O  O39  1  0.10415500  0.11733900  0.93923900  1
  O  O40  1  0.39689600  0.78250800  0.32191500  1
  O  O41  1  0.60406700  0.58735600  0.38990100  1
  O  O42  1  0.98673100  0.17039100  0.74289300  1
  O  O43  1  0.26400000  0.86965400  0.11587000  1
  O  O44  1  0.71256700  0.40247500  0.62630900  1
  O  O45  1  0.78361000  0.21834100  0.37921100  1
  O  O46  1  0.05563800  0.98124000  0.51076200  1
  O  O47  1  0.73023300  0.27590900  0.17374100  1
  O  O48  1  0.17374100  0.82011700  0.73023300  1
  O  O49  1  0.51076200  0.45236000  0.05563800  1
  O  O50  1  0.37921100  0.61883800  0.78361000  1
  O  O51  1  0.62630900  0.25864900  0.71256700  1
  O  O52  1  0.11587000  0.75047600  0.26400000  1
  O  O53  1  0.74289300  0.09998400  0.98673100  1
  O  O54  1  0.38990100  0.41867500  0.60406700  1
  O  O55  1  0.32191500  0.49868100  0.39689600  1
  O  O56  1  0.93923900  0.83926700  0.10415500  1
  O  O57  1  0.41073300  0.31076100  0.13266100  1
  O  O58  1  0.75131900  0.92808500  0.46749200  1
  O  O59  1  0.83132500  0.86009900  0.66264400  1
  O  O60  1  0.15001600  0.50710700  0.07960900  1
  O  O61  1  0.49952400  0.13413000  0.38034600  1
  O  O62  1  0.99135100  0.62369100  0.84752500  1
  O  O63  1  0.63116200  0.87078900  0.03165900  1
  O  O64  1  0.79764000  0.73923800  0.26876000  1
  O  O65  1  0.42988300  0.07625900  0.97409100  1
