# generated using pymatgen
data_Li3V3P8O29
_symmetry_space_group_name_H-M   'P 1'
_cell_length_a   9.75595100
_cell_length_b   9.76319549
_cell_length_c   14.27359683
_cell_angle_alpha   90.61877564
_cell_angle_beta   89.76664312
_cell_angle_gamma   119.70059563
_symmetry_Int_Tables_number   1
_chemical_formula_structural   Li3V3P8O29
_chemical_formula_sum   'Li6 V6 P16 O58'
_cell_volume   1180.87038415
_cell_formula_units_Z   2
loop_
 _symmetry_equiv_pos_site_id
 _symmetry_equiv_pos_as_xyz
  1  'x, y, z'
loop_
 _atom_site_type_symbol
 _atom_site_label
 _atom_site_symmetry_multiplicity
 _atom_site_fract_x
 _atom_site_fract_y
 _atom_site_fract_z
 _atom_site_occupancy
  Li  Li0  1  0.09154300  0.31467000  0.05979400  1
  Li  Li1  1  0.22889200  0.32732200  0.55584900  1
  Li  Li2  1  0.91831200  0.69433200  0.94348000  1
  Li  Li3  1  0.32637700  0.09017300  0.43997900  1
  Li  Li4  1  0.77578000  0.08543000  0.94136800  1
  Li  Li5  1  0.91950000  0.93375500  0.48906100  1
  V  V6  1  0.56965900  0.56699900  0.24967100  1
  V  V7  1  0.43817000  0.43535200  0.75518400  1
  V  V8  1  0.00512600  0.56985800  0.74267400  1
  V  V9  1  0.99409300  0.43439500  0.26024200  1
  V  V10  1  0.43493800  0.99870200  0.24552700  1
  V  V11  1  0.56183700  0.99621800  0.74618500  1
  P  P12  1  0.22686000  0.91605900  0.84027400  1
  P  P13  1  0.08624500  0.78392200  0.34020900  1
  P  P14  1  0.69287100  0.91645800  0.33787600  1
  P  P15  1  0.32908200  0.65813400  0.13340500  1
  P  P16  1  0.33464200  0.66308300  0.63055500  1
  P  P17  1  0.68682900  0.77427800  0.84122600  1
  P  P18  1  0.77167400  0.68987700  0.65793800  1
  P  P19  1  0.08890600  0.32263100  0.84201000  1
  P  P20  1  0.91317800  0.68128600  0.15858400  1
  P  P21  1  0.23085600  0.31595600  0.34185100  1
  P  P22  1  0.31475900  0.22724500  0.16000700  1
  P  P23  1  0.65890200  0.33113800  0.36979200  1
  P  P24  1  0.67580200  0.33578100  0.86756000  1
  P  P25  1  0.31404100  0.08908100  0.65840200  1
  P  P26  1  0.91455100  0.22131300  0.66150200  1
  P  P27  1  0.77447500  0.09138400  0.15792900  1
  O  O28  1  0.24291200  0.01930300  0.56618900  1
  O  O29  1  0.26218600  0.91808900  0.33575600  1
  O  O30  1  0.98750900  0.74295900  0.06709700  1
  O  O31  1  0.08308200  0.74444100  0.83409600  1
  O  O32  1  0.38135300  0.90826200  0.81818700  1
  O  O33  1  0.34090000  0.81453900  0.17872800  1
  O  O34  1  0.53832700  0.92371700  0.32711600  1
  O  O35  1  0.76614100  0.01737700  0.06547800  1
  O  O36  1  0.65950300  0.91802900  0.83974300  1
  O  O37  1  0.18838000  0.67089300  0.67549000  1
  O  O38  1  0.08150300  0.62074700  0.33181700  1
  O  O39  1  0.48361500  0.81166600  0.67515200  1
  O  O40  1  0.32801900  0.65727900  0.02975100  1
  O  O41  1  0.32811600  0.66099500  0.52698000  1
  O  O42  1  0.47459800  0.65557100  0.17782300  1
  O  O43  1  0.09714200  0.48101100  0.82044300  1
  O  O44  1  0.17810200  0.51635100  0.17676300  1
  O  O45  1  0.65211300  0.74115500  0.32952500  1
  O  O46  1  0.79039100  0.79737600  0.74865400  1
  O  O47  1  0.78713500  0.77859700  0.57261100  1
  O  O48  1  0.76971600  0.76430200  0.92494800  1
  O  O49  1  0.52424500  0.62107100  0.82307100  1
  O  O50  1  0.32755900  0.51143300  0.67142100  1
  O  O51  1  0.74441400  0.65735700  0.16931300  1
  O  O52  1  0.38573300  0.47189500  0.32834400  1
  O  O53  1  0.08929500  0.34678300  0.33488200  1
  O  O54  1  0.01270600  0.80047600  0.24247400  1
  O  O55  1  0.00575000  0.80569800  0.42205800  1
  O  O56  1  0.00525100  0.21004700  0.58101000  1
  O  O57  1  0.90858400  0.65161900  0.66990900  1
  O  O58  1  0.61310400  0.53464500  0.67234800  1
  O  O59  1  0.25794800  0.34627400  0.83321800  1
  O  O60  1  0.66613700  0.47941100  0.32307200  1
  O  O61  1  0.47432600  0.38040400  0.17632300  1
  O  O62  1  0.22604700  0.23012800  0.07728700  1
  O  O63  1  0.22810100  0.23374600  0.43090100  1
  O  O64  1  0.21011500  0.20271400  0.25461400  1
  O  O65  1  0.34236800  0.26044500  0.66711500  1
  O  O66  1  0.82266600  0.48220700  0.82470100  1
  O  O67  1  0.90444400  0.52210000  0.18438000  1
  O  O68  1  0.52926700  0.34261600  0.82091100  1
  O  O69  1  0.67469700  0.33989300  0.97126600  1
  O  O70  1  0.65664500  0.33226800  0.47355900  1
  O  O71  1  0.50804300  0.18299300  0.32883000  1
  O  O72  1  0.91834500  0.38284700  0.67046700  1
  O  O73  1  0.80997900  0.32797800  0.32754200  1
  O  O74  1  0.34520700  0.08523500  0.16581700  1
  O  O75  1  0.20411200  0.99540100  0.74485500  1
  O  O76  1  0.23384100  0.00276100  0.92622100  1
  O  O77  1  0.47409400  0.09178500  0.67589700  1
  O  O78  1  0.66910700  0.18230800  0.82677800  1
  O  O79  1  0.62118800  0.09986100  0.17921500  1
  O  O80  1  0.92005400  0.26008100  0.16647600  1
  O  O81  1  0.00736100  0.25161600  0.93223800  1
  O  O82  1  0.98965200  0.20258000  0.75870800  1
  O  O83  1  0.74143500  0.08597200  0.66677800  1
  O  O84  1  0.79110200  0.99461600  0.42109600  1
  O  O85  1  0.79223300  0.99511800  0.24252300  1
