# generated using pymatgen
data_Li3V4(OF3)3
_symmetry_space_group_name_H-M   'P 1'
_cell_length_a   5.19496900
_cell_length_b   5.54465849
_cell_length_c   17.27893727
_cell_angle_alpha   88.62731253
_cell_angle_beta   97.57609879
_cell_angle_gamma   117.45402352
_symmetry_Int_Tables_number   1
_chemical_formula_structural   Li3V4(OF3)3
_chemical_formula_sum   'Li6 V8 O6 F18'
_cell_volume   437.41755204
_cell_formula_units_Z   2
loop_
 _symmetry_equiv_pos_site_id
 _symmetry_equiv_pos_as_xyz
  1  'x, y, z'
loop_
 _atom_site_type_symbol
 _atom_site_label
 _atom_site_symmetry_multiplicity
 _atom_site_fract_x
 _atom_site_fract_y
 _atom_site_fract_z
 _atom_site_occupancy
  Li  Li0  1  0.81947300  0.33011200  0.29530400  1
  Li  Li1  1  0.69814300  0.41292100  0.95464300  1
  Li  Li2  1  0.31875600  0.06999500  0.55480300  1
  Li  Li3  1  0.56966100  0.72431600  0.43205000  1
  Li  Li4  1  0.42601100  0.81616300  0.06011800  1
  Li  Li5  1  0.17889400  0.66297200  0.69861100  1
  V  V6  1  0.99992900  0.00909000  0.99971100  1
  V  V7  1  0.75893800  0.37327900  0.12456800  1
  V  V8  1  0.51843100  0.72088600  0.24488000  1
  V  V9  1  0.50382400  0.24733100  0.75030300  1
  V  V10  1  0.25514300  0.09138200  0.37653300  1
  V  V11  1  0.71946200  0.88257500  0.62931900  1
  V  V12  1  0.02915200  0.52146500  0.50363000  1
  V  V13  1  0.24012900  0.63943700  0.88003100  1
  O  O14  1  0.80594200  0.19669000  0.03698000  1
  O  O15  1  0.66345600  0.04940600  0.71067000  1
  O  O16  1  0.69613400  0.52187000  0.21753500  1
  O  O17  1  0.30479600  0.67463600  0.59364000  1
  O  O18  1  0.25430600  0.81421000  0.43996400  1
  O  O19  1  0.15577800  0.77337100  0.96523100  1
  F  F20  1  0.77323200  0.08087100  0.19749500  1
  F  F21  1  0.73226200  0.19398700  0.55485500  1
  F  F22  1  0.72049300  0.66418600  0.05719200  1
  F  F23  1  0.70394900  0.34701800  0.40191400  1
  F  F24  1  0.79322600  0.39454800  0.84924800  1
  F  F25  1  0.80164900  0.89768000  0.34782000  1
  F  F26  1  0.81926300  0.74575400  0.52888700  1
  F  F27  1  0.31603700  0.12131900  0.09198500  1
  F  F28  1  0.76147000  0.57460700  0.68931600  1
  F  F29  1  0.24915100  0.42439200  0.31807600  1
  F  F30  1  0.67906900  0.84800600  0.90846200  1
  F  F31  1  0.22963600  0.29431600  0.47044700  1
  F  F32  1  0.17523700  0.09581600  0.65160400  1
  F  F33  1  0.21563700  0.60966000  0.14968700  1
  F  F34  1  0.30587300  0.47387300  0.77987300  1
  F  F35  1  0.34019500  0.96409000  0.28354700  1
  F  F36  1  0.27566200  0.33138100  0.93744800  1
  F  F37  1  0.23149700  0.91346100  0.80289500  1
