# generated using pymatgen
data_Li11V6O5F19
_symmetry_space_group_name_H-M   'P 1'
_cell_length_a   5.13056400
_cell_length_b   5.46044431
_cell_length_c   16.20455697
_cell_angle_alpha   98.98120835
_cell_angle_beta   90.06980342
_cell_angle_gamma   91.47255432
_symmetry_Int_Tables_number   1
_chemical_formula_structural   Li11V6O5F19
_chemical_formula_sum   'Li11 V6 O5 F19'
_cell_volume   448.25296948
_cell_formula_units_Z   1
loop_
 _symmetry_equiv_pos_site_id
 _symmetry_equiv_pos_as_xyz
  1  'x, y, z'
loop_
 _atom_site_type_symbol
 _atom_site_label
 _atom_site_symmetry_multiplicity
 _atom_site_fract_x
 _atom_site_fract_y
 _atom_site_fract_z
 _atom_site_occupancy
  Li  Li0  1  0.49102400  0.24042000  0.55867300  1
  Li  Li1  1  0.00249500  0.39800000  0.89929700  1
  Li  Li2  1  0.51425500  0.28023400  0.79537600  1
  Li  Li3  1  0.98824200  0.09096500  0.22877800  1
  Li  Li4  1  0.49049900  0.11816200  0.10966300  1
  Li  Li5  1  0.00129000  0.24917800  0.43144700  1
  Li  Li6  1  0.00221400  0.71570900  0.55632500  1
  Li  Li7  1  0.50160300  0.85656600  0.88642200  1
  Li  Li8  1  0.01060500  0.58020100  0.10052200  1
  Li  Li9  1  0.50105200  0.54943900  0.22197400  1
  Li  Li10  1  0.49196800  0.79561400  0.44180500  1
  V  V11  1  0.98738300  0.35131700  0.66640700  1
  V  V12  1  0.49878400  0.16821800  0.33484300  1
  V  V13  1  0.51827100  0.81735300  0.66409200  1
  V  V14  1  0.50441500  0.49112200  0.00197100  1
  V  V15  1  0.00455400  0.99208500  0.00103200  1
  V  V16  1  0.00037500  0.66693000  0.33348500  1
  O  O17  1  0.80574800  0.35291100  0.30660700  1
  O  O18  1  0.69449400  0.51725900  0.62954500  1
  O  O19  1  0.80924400  0.67757900  0.97216500  1
  O  O20  1  0.20302000  0.30526800  0.03517900  1
  O  O21  1  0.19965800  0.97653100  0.36592900  1
  F  F22  1  0.82468500  0.00893500  0.62155300  1
  F  F23  1  0.68914800  0.16506500  0.95353600  1
  F  F24  1  0.32654300  0.17618100  0.68949200  1
  F  F25  1  0.64421700  0.15055100  0.45079700  1
  F  F26  1  0.87249500  0.35895900  0.78168400  1
  F  F27  1  0.35160500  0.19002200  0.22047200  1
  F  F28  1  0.85156500  0.00546800  0.11806900  1
  F  F29  1  0.13706400  0.34699000  0.54888200  1
  F  F30  1  0.36481000  0.50147100  0.88423600  1
  F  F31  1  0.31083200  0.49273000  0.38259200  1
  F  F32  1  0.18242200  0.67087200  0.69766900  1
  F  F33  1  0.85034200  0.68263100  0.44948800  1
  F  F34  1  0.14275900  0.65572600  0.21746600  1
  F  F35  1  0.65450800  0.47404300  0.11660000  1
  F  F36  1  0.60293100  0.91895600  0.77994800  1
  F  F37  1  0.15895400  0.99424000  0.89095100  1
  F  F38  1  0.36013700  0.84780000  0.55338900  1
  F  F39  1  0.68330900  0.83930500  0.28831900  1
  F  F40  1  0.31459100  0.81581500  0.04958800  1
