# generated using pymatgen
data_Li5Ni2(PO4)3
_symmetry_space_group_name_H-M   'P 1'
_cell_length_a   8.31873300
_cell_length_b   8.35928295
_cell_length_c   9.17467443
_cell_angle_alpha   63.41981986
_cell_angle_beta   63.34008638
_cell_angle_gamma   60.19371216
_symmetry_Int_Tables_number   1
_chemical_formula_structural   Li5Ni2(PO4)3
_chemical_formula_sum   'Li10 Ni4 P6 O24'
_cell_volume   473.56889788
_cell_formula_units_Z   2
loop_
 _symmetry_equiv_pos_site_id
 _symmetry_equiv_pos_as_xyz
  1  'x, y, z'
loop_
 _atom_site_type_symbol
 _atom_site_label
 _atom_site_symmetry_multiplicity
 _atom_site_fract_x
 _atom_site_fract_y
 _atom_site_fract_z
 _atom_site_occupancy
  Li  Li0  1  0.27220900  0.92681500  0.13319700  1
  Li  Li1  1  0.92309300  0.68721400  0.11208600  1
  Li  Li2  1  0.69279700  0.27511500  0.10153200  1
  Li  Li3  1  0.89982000  0.46238200  0.42048900  1
  Li  Li4  1  0.48380200  0.21356100  0.40854000  1
  Li  Li5  1  0.51619800  0.78643900  0.59146000  1
  Li  Li6  1  0.10018000  0.53761800  0.57951100  1
  Li  Li7  1  0.30720300  0.72488500  0.89846800  1
  Li  Li8  1  0.07690700  0.31278600  0.88791400  1
  Li  Li9  1  0.72779100  0.07318500  0.86680300  1
  Ni  Ni10  1  0.65437000  0.65365500  0.04348500  1
  Ni  Ni11  1  0.14279400  0.12675400  0.57570200  1
  Ni  Ni12  1  0.85720600  0.87324600  0.42429800  1
  Ni  Ni13  1  0.34563000  0.34634500  0.95651500  1
  P  P14  1  0.95483300  0.25487000  0.24844600  1
  P  P15  1  0.54693700  0.95760200  0.24259600  1
  P  P16  1  0.25380500  0.54465900  0.24329100  1
  P  P17  1  0.74619500  0.45534100  0.75670900  1
  P  P18  1  0.45306300  0.04239800  0.75740400  1
  P  P19  1  0.04516700  0.74513000  0.75155400  1
  O  O20  1  0.14393900  0.20626700  0.09782600  1
  O  O21  1  0.83452700  0.47529000  0.20457500  1
  O  O22  1  0.49888900  0.83715200  0.19359800  1
  O  O23  1  0.54792400  0.15177000  0.09821100  1
  O  O24  1  0.19991800  0.54367000  0.10094900  1
  O  O25  1  0.99885000  0.20112400  0.41217400  1
  O  O26  1  0.75358100  0.84528200  0.26692100  1
  O  O27  1  0.40620300  0.99968200  0.41314900  1
  O  O28  1  0.47473000  0.48448700  0.19850100  1
  O  O29  1  0.13866500  0.74821200  0.26594500  1
  O  O30  1  0.19336800  0.39810900  0.41630700  1
  O  O31  1  0.83669100  0.14552300  0.26773000  1
  O  O32  1  0.16330900  0.85447700  0.73227000  1
  O  O33  1  0.80663200  0.60189100  0.58369300  1
  O  O34  1  0.86133500  0.25178800  0.73405500  1
  O  O35  1  0.52527000  0.51551300  0.80149900  1
  O  O36  1  0.59379700  0.00031800  0.58685100  1
  O  O37  1  0.24641900  0.15471800  0.73307900  1
  O  O38  1  0.00115000  0.79887600  0.58782600  1
  O  O39  1  0.80008200  0.45633000  0.89905100  1
  O  O40  1  0.45207600  0.84823000  0.90178900  1
  O  O41  1  0.50111100  0.16284800  0.80640200  1
  O  O42  1  0.16547300  0.52471000  0.79542500  1
  O  O43  1  0.85606100  0.79373300  0.90217400  1
