# generated using pymatgen
data_Li5Fe8(BO3)8
_symmetry_space_group_name_H-M   'P 1'
_cell_length_a   5.25785100
_cell_length_b   9.05179691
_cell_length_c   10.16186804
_cell_angle_alpha   89.54967485
_cell_angle_beta   88.21318877
_cell_angle_gamma   89.62593334
_symmetry_Int_Tables_number   1
_chemical_formula_structural   Li5Fe8(BO3)8
_chemical_formula_sum   'Li5 Fe8 B8 O24'
_cell_volume   483.37413647
_cell_formula_units_Z   1
loop_
 _symmetry_equiv_pos_site_id
 _symmetry_equiv_pos_as_xyz
  1  'x, y, z'
loop_
 _atom_site_type_symbol
 _atom_site_label
 _atom_site_symmetry_multiplicity
 _atom_site_fract_x
 _atom_site_fract_y
 _atom_site_fract_z
 _atom_site_occupancy
  Li  Li0  1  0.65808200  0.98279800  0.83588700  1
  Li  Li1  1  0.34458300  0.99345200  0.09766800  1
  Li  Li2  1  0.85431400  0.50927000  0.58885000  1
  Li  Li3  1  0.16561800  0.49458100  0.84544000  1
  Li  Li4  1  0.65818600  0.00987100  0.33718500  1
  Fe  Fe5  1  0.84465900  0.82430300  0.11471700  1
  Fe  Fe6  1  0.16230000  0.82764600  0.37040400  1
  Fe  Fe7  1  0.66863200  0.65423500  0.87591100  1
  Fe  Fe8  1  0.35221500  0.67775900  0.62224400  1
  Fe  Fe9  1  0.66276800  0.35157000  0.36319700  1
  Fe  Fe10  1  0.83945700  0.16423700  0.61734800  1
  Fe  Fe11  1  0.32837800  0.34013000  0.12511000  1
  Fe  Fe12  1  0.15710900  0.15788300  0.86756500  1
  B  B13  1  0.84305700  0.83188100  0.62160500  1
  B  B14  1  0.67600200  0.67570100  0.37731700  1
  B  B15  1  0.16911400  0.83192000  0.87559800  1
  B  B16  1  0.34215300  0.66672700  0.12400800  1
  B  B17  1  0.66346500  0.32678200  0.86825700  1
  B  B18  1  0.33056600  0.33301300  0.62350000  1
  B  B19  1  0.82589000  0.17092600  0.12364300  1
  B  B20  1  0.16313300  0.16130200  0.36603100  1
  O  O21  1  0.72302500  0.96650900  0.64151900  1
  O  O22  1  0.90771900  0.83803300  0.90178400  1
  O  O23  1  0.31225500  0.95855400  0.89577500  1
  O  O24  1  0.79746100  0.80753000  0.33570300  1
  O  O25  1  0.72384100  0.70135000  0.65938500  1
  O  O26  1  0.22053200  0.79837700  0.16931000  1
  O  O27  1  0.08432200  0.82593200  0.56417500  1
  O  O28  1  0.58858600  0.67580100  0.07901000  1
  O  O29  1  0.80547000  0.54753500  0.39502900  1
  O  O30  1  0.41809000  0.68475200  0.40851600  1
  O  O31  1  0.28417300  0.70131100  0.83454200  1
  O  O32  1  0.80736900  0.45030100  0.86006600  1
  O  O33  1  0.21166700  0.53629100  0.12197800  1
  O  O34  1  0.69179100  0.30025000  0.15269000  1
  O  O35  1  0.59042200  0.32216600  0.58454600  1
  O  O36  1  0.21124400  0.46629400  0.63824000  1
  O  O37  1  0.40761700  0.32972200  0.91496700  1
  O  O38  1  0.90623200  0.16506200  0.41307600  1
  O  O39  1  0.76951500  0.19020700  0.82569100  1
  O  O40  1  0.28574300  0.28965200  0.32509700  1
  O  O41  1  0.19442100  0.20304300  0.65286400  1
  O  O42  1  0.70542100  0.03684900  0.13539100  1
  O  O43  1  0.08661100  0.17759500  0.08671600  1
  O  O44  1  0.28922100  0.02774700  0.35648400  1
