# generated using pymatgen
data_Li2Co3OF6
_symmetry_space_group_name_H-M   'P 1'
_cell_length_a   5.04985600
_cell_length_b   10.39978484
_cell_length_c   11.85746007
_cell_angle_alpha   115.03791059
_cell_angle_beta   101.81744187
_cell_angle_gamma   92.58098268
_symmetry_Int_Tables_number   1
_chemical_formula_structural   Li2Co3OF6
_chemical_formula_sum   'Li8 Co12 O4 F24'
_cell_volume   546.12227231
_cell_formula_units_Z   4
loop_
 _symmetry_equiv_pos_site_id
 _symmetry_equiv_pos_as_xyz
  1  'x, y, z'
loop_
 _atom_site_type_symbol
 _atom_site_label
 _atom_site_symmetry_multiplicity
 _atom_site_fract_x
 _atom_site_fract_y
 _atom_site_fract_z
 _atom_site_occupancy
  Li  Li0  1  0.99587900  0.75516700  0.00406700  1
  Li  Li1  1  0.02849600  0.68993100  0.21404500  1
  Li  Li2  1  0.33954400  0.97047400  0.79132500  1
  Li  Li3  1  0.27299700  0.64673900  0.49630400  1
  Li  Li4  1  0.50165100  0.25682300  0.00940200  1
  Li  Li5  1  0.67077600  0.18135400  0.21649100  1
  Li  Li6  1  0.94120800  0.47262600  0.78846700  1
  Li  Li7  1  0.70299500  0.16559100  0.50112500  1
  Co  Co8  1  0.62883600  0.87339500  0.22722200  1
  Co  Co9  1  0.21616700  0.96490000  0.49173100  1
  Co  Co10  1  0.50071300  0.48990800  0.95241300  1
  Co  Co11  1  0.82400300  0.81078100  0.64656600  1
  Co  Co12  1  0.69024100  0.68234800  0.35855600  1
  Co  Co13  1  0.40792400  0.66222400  0.79735200  1
  Co  Co14  1  0.10817800  0.38044400  0.19470000  1
  Co  Co15  1  0.74080700  0.48296000  0.50463200  1
  Co  Co16  1  0.03219200  0.02538600  0.02715400  1
  Co  Co17  1  0.20907000  0.18875600  0.35815100  1
  Co  Co18  1  0.36671100  0.33643500  0.64510100  1
  Co  Co19  1  0.89248100  0.16150400  0.78784400  1
  O  O20  1  0.91308300  0.84015100  0.35129600  1
  O  O21  1  0.91179700  0.65362800  0.50189100  1
  O  O22  1  0.58377400  0.50066500  0.80079300  1
  O  O23  1  0.51329200  0.32139400  0.49371100  1
  F  F24  1  0.29068900  0.91675100  0.09328700  1
  F  F25  1  0.75684700  0.68958600  0.07766500  1
  F  F26  1  0.08229400  0.99243200  0.65783500  1
  F  F27  1  0.39006300  0.70743000  0.22204500  1
  F  F28  1  0.47110700  0.82107200  0.50766100  1
  F  F29  1  0.16412600  0.80710300  0.78342500  1
  F  F30  1  0.85991500  0.52347400  0.20981200  1
  F  F31  1  0.75226400  0.84890700  0.93177200  1
  F  F32  1  0.30406800  0.40913300  0.06172700  1
  F  F33  1  0.40173500  0.51935200  0.35281100  1
  F  F34  1  0.54025800  0.65498400  0.64158600  1
  F  F35  1  0.20400200  0.62104600  0.92314300  1
  F  F36  1  0.80348300  0.19288300  0.08146200  1
  F  F37  1  0.94543400  0.33290900  0.34179500  1
  F  F38  1  0.06412300  0.48235000  0.64821500  1
  F  F39  1  0.31382600  0.21056200  0.18998900  1
  F  F40  1  0.12865500  0.31350800  0.77824000  1
  F  F41  1  0.87159300  0.03947000  0.22511000  1
  F  F42  1  0.07074400  0.15858600  0.50654900  1
  F  F43  1  0.69962600  0.30713700  0.91316400  1
  F  F44  1  0.43178600  0.02118500  0.36196400  1
  F  F45  1  0.57404700  0.14881200  0.63424800  1
  F  F46  1  0.19840300  0.10867600  0.92075100  1
  F  F47  1  0.68809900  0.98486700  0.77541000  1
