# generated using pymatgen
data_Li2FeOF3
_symmetry_space_group_name_H-M   'P 1'
_cell_length_a   5.90275275
_cell_length_b   10.40888442
_cell_length_c   5.94934314
_cell_angle_alpha   106.05441129
_cell_angle_beta   119.74172665
_cell_angle_gamma   73.52902009
_symmetry_Int_Tables_number   1
_chemical_formula_structural   Li2FeOF3
_chemical_formula_sum   'Li8 Fe4 O4 F12'
_cell_volume   300.27717750
_cell_formula_units_Z   4
loop_
 _symmetry_equiv_pos_site_id
 _symmetry_equiv_pos_as_xyz
  1  'x, y, z'
loop_
 _atom_site_type_symbol
 _atom_site_label
 _atom_site_symmetry_multiplicity
 _atom_site_fract_x
 _atom_site_fract_y
 _atom_site_fract_z
 _atom_site_occupancy
  Li  Li0  1  0.74509500  0.24513800  0.23538200  1
  Li  Li1  1  0.24509400  0.74513800  0.73538000  1
  Li  Li2  1  0.68069700  0.94695200  0.80835700  1
  Li  Li3  1  0.18068900  0.44695300  0.30834700  1
  Li  Li4  1  0.76603500  0.74473500  0.24640600  1
  Li  Li5  1  0.26603400  0.24473500  0.74640900  1
  Li  Li6  1  0.23578500  0.74470500  0.24644900  1
  Li  Li7  1  0.73578800  0.24470500  0.74645200  1
  Fe  Fe8  1  0.82720600  0.56317800  0.71763500  1
  Fe  Fe9  1  0.98579900  0.00635200  0.47796400  1
  Fe  Fe10  1  0.32721500  0.06317500  0.21764400  1
  Fe  Fe11  1  0.48579300  0.50635000  0.97795100  1
  O  O12  1  0.12128600  0.11952900  0.38862400  1
  O  O13  1  0.62128000  0.61952800  0.88862100  1
  O  O14  1  0.64778000  0.11951200  0.38857900  1
  O  O15  1  0.14777700  0.61950900  0.88857800  1
  F  F16  1  0.12160400  0.63817200  0.38151800  1
  F  F17  1  0.62160400  0.13817200  0.88151800  1
  F  F18  1  0.88339900  0.87487300  0.14153200  1
  F  F19  1  0.38339300  0.37487000  0.64151800  1
  F  F20  1  0.88037100  0.36798200  0.62859700  1
  F  F21  1  0.38037400  0.86797800  0.12859700  1
  F  F22  1  0.12370900  0.12083800  0.86856300  1
  F  F23  1  0.62370600  0.62084100  0.36855900  1
  F  F24  1  0.34282100  0.87903400  0.61019300  1
  F  F25  1  0.84281100  0.37903000  0.11018200  1
  F  F26  1  0.88842900  0.87900900  0.61022700  1
  F  F27  1  0.38842600  0.37900800  0.11022000  1
