# generated using pymatgen
data_Li6MnV3(PO4)6
_symmetry_space_group_name_H-M   'P 1'
_cell_length_a   8.71532400
_cell_length_b   8.71208100
_cell_length_c   12.35921954
_cell_angle_alpha   89.00849014
_cell_angle_beta   90.00000000
_cell_angle_gamma   90.00000000
_symmetry_Int_Tables_number   1
_chemical_formula_structural   Li6MnV3(PO4)6
_chemical_formula_sum   'Li12 Mn2 V6 P12 O48'
_cell_volume   938.27783449
_cell_formula_units_Z   2
loop_
 _symmetry_equiv_pos_site_id
 _symmetry_equiv_pos_as_xyz
  1  'x, y, z'
loop_
 _atom_site_type_symbol
 _atom_site_label
 _atom_site_symmetry_multiplicity
 _atom_site_fract_x
 _atom_site_fract_y
 _atom_site_fract_z
 _atom_site_occupancy
  Li  Li0  1  0.90262900  0.17353200  0.44735400  1
  Li  Li1  1  0.29573700  0.16749500  0.50844200  1
  Li  Li2  1  0.22711900  0.03880000  0.92871500  1
  Li  Li3  1  0.72711900  0.96120000  0.07128500  1
  Li  Li4  1  0.79573700  0.83250500  0.49155800  1
  Li  Li5  1  0.40262900  0.82646800  0.55264600  1
  Li  Li6  1  0.59625300  0.67022700  0.94792900  1
  Li  Li7  1  0.20363800  0.66403300  0.00903200  1
  Li  Li8  1  0.27373800  0.53905400  0.42865100  1
  Li  Li9  1  0.77373800  0.46094600  0.57134900  1
  Li  Li10  1  0.70363800  0.33596700  0.99096800  1
  Li  Li11  1  0.09625300  0.32977300  0.05207100  1
  Mn  Mn12  1  0.03386100  0.50457300  0.85610700  1
  Mn  Mn13  1  0.53386100  0.49542700  0.14389300  1
  V  V14  1  0.46880500  0.00308700  0.35974300  1
  V  V15  1  0.54229900  0.00325200  0.86135200  1
  V  V16  1  0.96880500  0.99691300  0.64025700  1
  V  V17  1  0.04229900  0.99674800  0.13864800  1
  V  V18  1  0.95820800  0.50386800  0.36127400  1
  V  V19  1  0.45820800  0.49613200  0.63872600  1
  P  P20  1  0.75221000  0.21091500  0.24358000  1
  P  P21  1  0.61174100  0.14442800  0.60363900  1
  P  P22  1  0.90211500  0.14548800  0.89845600  1
  P  P23  1  0.11174100  0.85557200  0.39636100  1
  P  P24  1  0.40211500  0.85451200  0.10154400  1
  P  P25  1  0.25221000  0.78908500  0.75642000  1
  P  P26  1  0.74861000  0.70996300  0.74413900  1
  P  P27  1  0.59849300  0.64498800  0.40106600  1
  P  P28  1  0.88819200  0.64437000  0.10599600  1
  P  P29  1  0.09849300  0.35501200  0.59893400  1
  P  P30  1  0.38819200  0.35563000  0.89400400  1
  P  P31  1  0.24861000  0.29003700  0.25586100  1
  O  O32  1  0.13482300  0.20036600  0.18441600  1
  O  O33  1  0.32702300  0.18691200  0.34325800  1
  O  O34  1  0.40483200  0.18019000  0.91460800  1
  O  O35  1  0.10562900  0.17591900  0.59637000  1
  O  O36  1  0.64196500  0.13439600  0.32546100  1
  O  O37  1  0.58569600  0.10131400  0.72244100  1
  O  O38  1  0.77879800  0.09999300  0.56924400  1
  O  O39  1  0.02445300  0.09938300  0.98687900  1
  O  O40  1  0.73993600  0.09190000  0.93634200  1
  O  O41  1  0.83390300  0.08348400  0.17999500  1
  O  O42  1  0.94956700  0.07962100  0.79103700  1
  O  O43  1  0.49180600  0.05673400  0.53310100  1
  O  O44  1  0.99180600  0.94326600  0.46689900  1
  O  O45  1  0.44956700  0.92037900  0.20896300  1
  O  O46  1  0.33390300  0.91651600  0.82000500  1
  O  O47  1  0.23993600  0.90810000  0.06365800  1
  O  O48  1  0.27879800  0.90000700  0.43075600  1
  O  O49  1  0.52445300  0.90061700  0.01312100  1
  O  O50  1  0.08569600  0.89868600  0.27755900  1
  O  O51  1  0.14196500  0.86560400  0.67453900  1
  O  O52  1  0.60562900  0.82408100  0.40363000  1
  O  O53  1  0.90483200  0.81981000  0.08539200  1
  O  O54  1  0.82702300  0.81308800  0.65674200  1
  O  O55  1  0.63482300  0.79963400  0.81558400  1
  O  O56  1  0.36482300  0.69960700  0.68509000  1
  O  O57  1  0.17287700  0.68702000  0.84487100  1
  O  O58  1  0.09509200  0.68103600  0.41643000  1
  O  O59  1  0.39403100  0.67512300  0.09845600  1
  O  O60  1  0.85868200  0.63687000  0.82843900  1
  O  O61  1  0.90963000  0.60489100  0.22592500  1
  O  O62  1  0.47586000  0.60130300  0.48976700  1
  O  O63  1  0.72058700  0.59967800  0.07014200  1
  O  O64  1  0.76134300  0.59314700  0.43869400  1
  O  O65  1  0.66618600  0.58257100  0.68060100  1
  O  O66  1  0.54944200  0.57956200  0.29514600  1
  O  O67  1  0.00936800  0.55613700  0.03973200  1
  O  O68  1  0.50936800  0.44386300  0.96026800  1
  O  O69  1  0.04944200  0.42043800  0.70485400  1
  O  O70  1  0.16618600  0.41742900  0.31939900  1
  O  O71  1  0.26134300  0.40685300  0.56130600  1
  O  O72  1  0.97586000  0.39869700  0.51023300  1
  O  O73  1  0.22058700  0.40032200  0.92985800  1
  O  O74  1  0.40963000  0.39510900  0.77407500  1
  O  O75  1  0.35868200  0.36313000  0.17156100  1
  O  O76  1  0.89403100  0.32487700  0.90154400  1
  O  O77  1  0.59509200  0.31896400  0.58357000  1
  O  O78  1  0.67287700  0.31298000  0.15512900  1
  O  O79  1  0.86482300  0.30039300  0.31491000  1
