# generated using pymatgen
data_Na3LiMnBPO7
_symmetry_space_group_name_H-M   'P 1'
_cell_length_a   5.27072285
_cell_length_b   6.83866104
_cell_length_c   9.63223728
_cell_angle_alpha   89.98835159
_cell_angle_beta   93.41949983
_cell_angle_gamma   90.00177346
_symmetry_Int_Tables_number   1
_chemical_formula_structural   Na3LiMnBPO7
_chemical_formula_sum   'Na6 Li2 Mn2 B2 P2 O14'
_cell_volume   346.57282692
_cell_formula_units_Z   2
loop_
 _symmetry_equiv_pos_site_id
 _symmetry_equiv_pos_as_xyz
  1  'x, y, z'
loop_
 _atom_site_type_symbol
 _atom_site_label
 _atom_site_symmetry_multiplicity
 _atom_site_fract_x
 _atom_site_fract_y
 _atom_site_fract_z
 _atom_site_occupancy
  Na  Na0  1  0.74940600  0.25000900  0.93145900  1
  Na  Na1  1  0.21569700  0.98650000  0.78192600  1
  Na  Na2  1  0.21569400  0.51350200  0.78195400  1
  Na  Na3  1  0.78426900  0.48661200  0.21814100  1
  Na  Na4  1  0.78425100  0.01346700  0.21816500  1
  Na  Na5  1  0.25059100  0.75003700  0.06856800  1
  Li  Li6  1  0.00025400  0.00013900  0.50010800  1
  Li  Li7  1  0.00027800  0.49985200  0.50009400  1
  Mn  Mn8  1  0.70709900  0.74985700  0.68012100  1
  Mn  Mn9  1  0.29270600  0.25000400  0.31978200  1
  B  B10  1  0.72646100  0.75000300  0.94339700  1
  B  B11  1  0.27355300  0.25002900  0.05649400  1
  P  P12  1  0.67983100  0.24994400  0.57792500  1
  P  P13  1  0.32012800  0.75004000  0.42207400  1
  O  O14  1  0.27670500  0.24996300  0.91489700  1
  O  O15  1  0.94987500  0.74993200  0.87169500  1
  O  O16  1  0.50027300  0.74996600  0.85785200  1
  O  O17  1  0.78014900  0.06561300  0.65976900  1
  O  O18  1  0.78022300  0.43420200  0.65979100  1
  O  O19  1  0.18620300  0.74995800  0.56482900  1
  O  O20  1  0.38694200  0.25002800  0.55133700  1
  O  O21  1  0.61297900  0.74997300  0.44858600  1
  O  O22  1  0.81387900  0.25003300  0.43520800  1
  O  O23  1  0.21968800  0.56573000  0.34021800  1
  O  O24  1  0.21970100  0.93438600  0.34022100  1
  O  O25  1  0.49973600  0.25006200  0.14210700  1
  O  O26  1  0.05008400  0.25006800  0.12821300  1
  O  O27  1  0.72335200  0.75009000  0.08506800  1
