# generated using pymatgen
data_LiCrCO4
_symmetry_space_group_name_H-M   'P 1'
_cell_length_a   3.10487482
_cell_length_b   9.33751003
_cell_length_c   9.38454520
_cell_angle_alpha   90.00952198
_cell_angle_beta   89.99866672
_cell_angle_gamma   90.00191377
_symmetry_Int_Tables_number   1
_chemical_formula_structural   LiCrCO4
_chemical_formula_sum   'Li4 Cr4 C4 O16'
_cell_volume   272.07485142
_cell_formula_units_Z   4
loop_
 _symmetry_equiv_pos_site_id
 _symmetry_equiv_pos_as_xyz
  1  'x, y, z'
loop_
 _atom_site_type_symbol
 _atom_site_label
 _atom_site_symmetry_multiplicity
 _atom_site_fract_x
 _atom_site_fract_y
 _atom_site_fract_z
 _atom_site_occupancy
  Li  Li0  1  0.24938900  0.30677700  0.90785400  1
  Li  Li1  1  0.24933000  0.19315200  0.40785800  1
  Li  Li2  1  0.75057400  0.80690800  0.59213100  1
  Li  Li3  1  0.75063100  0.69324300  0.09212400  1
  Cr  Cr4  1  0.25039600  0.93993300  0.87972100  1
  Cr  Cr5  1  0.24962200  0.56007400  0.37958200  1
  Cr  Cr6  1  0.74972100  0.43982000  0.62032400  1
  Cr  Cr7  1  0.75044600  0.06002600  0.12041500  1
  C  C8  1  0.24996000  0.63168500  0.83304800  1
  C  C9  1  0.25006000  0.86834600  0.33313100  1
  C  C10  1  0.74993900  0.13165800  0.66686200  1
  C  C11  1  0.74997900  0.36830400  0.16694300  1
  O  O12  1  0.24952000  0.50728500  0.75871200  1
  O  O13  1  0.25044700  0.11323800  0.99965400  1
  O  O14  1  0.24977300  0.75082400  0.75990600  1
  O  O15  1  0.25031500  0.99272100  0.25881500  1
  O  O16  1  0.24962900  0.38676300  0.49952700  1
  O  O17  1  0.24942800  0.74918900  0.25994300  1
  O  O18  1  0.25057000  0.62711000  0.96598900  1
  O  O19  1  0.25041500  0.87303000  0.46605600  1
  O  O20  1  0.74940900  0.12701700  0.53395600  1
  O  O21  1  0.74955400  0.37289100  0.03400200  1
  O  O22  1  0.75000700  0.25083100  0.74006500  1
  O  O23  1  0.74964600  0.61319900  0.50043200  1
  O  O24  1  0.75043300  0.00729300  0.74118900  1
  O  O25  1  0.75065100  0.24918200  0.24011000  1
  O  O26  1  0.75039200  0.88678700  0.00037900  1
  O  O27  1  0.74976400  0.49271500  0.24127200  1
