# generated using pymatgen
data_Li2Fe(Si2O5)3
_symmetry_space_group_name_H-M   'P 1'
_cell_length_a   7.45110830
_cell_length_b   7.45110830
_cell_length_c   14.84122226
_cell_angle_alpha   80.23534986
_cell_angle_beta   80.23534986
_cell_angle_gamma   58.31372252
_symmetry_Int_Tables_number   1
_chemical_formula_structural   Li2Fe(Si2O5)3
_chemical_formula_sum   'Li4 Fe2 Si12 O30'
_cell_volume   687.79669309
_cell_formula_units_Z   2
loop_
 _symmetry_equiv_pos_site_id
 _symmetry_equiv_pos_as_xyz
  1  'x, y, z'
loop_
 _atom_site_type_symbol
 _atom_site_label
 _atom_site_symmetry_multiplicity
 _atom_site_fract_x
 _atom_site_fract_y
 _atom_site_fract_z
 _atom_site_occupancy
  Li  Li0  1  0.71348500  0.68375900  0.05056900  1
  Li  Li1  1  0.04910400  0.34941400  0.16075200  1
  Li  Li2  1  0.68375900  0.71348500  0.55056900  1
  Li  Li3  1  0.34941400  0.04910400  0.66075200  1
  Fe  Fe4  1  0.76834300  0.28086900  0.10379700  1
  Fe  Fe5  1  0.28086900  0.76834300  0.60379700  1
  Si  Si6  1  0.54076800  0.63991000  0.25310700  1
  Si  Si7  1  0.03116200  0.08088300  0.43556000  1
  Si  Si8  1  0.63991000  0.54076800  0.75310700  1
  Si  Si9  1  0.08088300  0.03116200  0.93556000  1
  Si  Si10  1  0.37441300  0.16663300  0.44953800  1
  Si  Si11  1  0.63370900  0.99967600  0.25258000  1
  Si  Si12  1  0.16663300  0.37441300  0.94953800  1
  Si  Si13  1  0.99967600  0.63370900  0.75258000  1
  Si  Si14  1  0.07361100  0.91157200  0.24357200  1
  Si  Si15  1  0.55563100  0.43597400  0.45802600  1
  Si  Si16  1  0.91157200  0.07361100  0.74357200  1
  Si  Si17  1  0.43597400  0.55563100  0.95802600  1
  O  O18  1  0.56168500  0.53882700  0.04190800  1
  O  O19  1  0.03879700  0.07923600  0.15161600  1
  O  O20  1  0.06683800  0.03020200  0.32862800  1
  O  O21  1  0.73976800  0.46310200  0.19263900  1
  O  O22  1  0.57242000  0.57246100  0.36169100  1
  O  O23  1  0.53882700  0.56168500  0.54190800  1
  O  O24  1  0.99578900  0.46548200  0.03692100  1
  O  O25  1  0.07923600  0.03879700  0.65161600  1
  O  O26  1  0.55188600  0.85588700  0.22066500  1
  O  O27  1  0.03020200  0.06683800  0.82862800  1
  O  O28  1  0.46310200  0.73976800  0.69263900  1
  O  O29  1  0.12839600  0.23162500  0.44008000  1
  O  O30  1  0.57246100  0.57242000  0.86169100  1
  O  O31  1  0.46548200  0.99578900  0.53692100  1
  O  O32  1  0.51556600  0.07892200  0.35282000  1
  O  O33  1  0.85588700  0.55188600  0.72066500  1
  O  O34  1  0.58692700  0.19054900  0.17364000  1
  O  O35  1  0.89213900  0.84543000  0.26201600  1
  O  O36  1  0.23162500  0.12839600  0.94008000  1
  O  O37  1  0.36466800  0.38792000  0.46120500  1
  O  O38  1  0.07892200  0.51556600  0.85282000  1
  O  O39  1  0.30635700  0.69506100  0.23276500  1
  O  O40  1  0.19054900  0.58692700  0.67364000  1
  O  O41  1  0.84543000  0.89213900  0.76201600  1
  O  O42  1  0.77773800  0.20850300  0.46678600  1
  O  O43  1  0.14600400  0.85181900  0.49620500  1
  O  O44  1  0.38792000  0.36466800  0.96120500  1
  O  O45  1  0.69506100  0.30635700  0.73276500  1
  O  O46  1  0.20850300  0.77773800  0.96678600  1
  O  O47  1  0.85181900  0.14600400  0.99620500  1
