# generated using pymatgen
data_LiCoSiO4
_symmetry_space_group_name_H-M   'P 1'
_cell_length_a   8.91140800
_cell_length_b   4.86086900
_cell_length_c   7.84913908
_cell_angle_alpha   53.48014496
_cell_angle_beta   90.00000000
_cell_angle_gamma   90.00000000
_symmetry_Int_Tables_number   1
_chemical_formula_structural   LiCoSiO4
_chemical_formula_sum   'Li4 Co4 Si4 O16'
_cell_volume   273.24334214
_cell_formula_units_Z   4
loop_
 _symmetry_equiv_pos_site_id
 _symmetry_equiv_pos_as_xyz
  1  'x, y, z'
loop_
 _atom_site_type_symbol
 _atom_site_label
 _atom_site_symmetry_multiplicity
 _atom_site_fract_x
 _atom_site_fract_y
 _atom_site_fract_z
 _atom_site_occupancy
  Li  Li0  1  0.33707300  0.29054900  0.74021100  1
  Li  Li1  1  0.83707300  0.70945100  0.75978900  1
  Li  Li2  1  0.16292700  0.29054900  0.24021100  1
  Li  Li3  1  0.66292700  0.70945100  0.25978900  1
  Co  Co4  1  0.00000000  0.50000000  0.50000000  1
  Co  Co5  1  0.50000000  0.00000000  0.50000000  1
  Co  Co6  1  0.00000000  0.00000000  0.00000000  1
  Co  Co7  1  0.50000000  0.50000000  0.00000000  1
  Si  Si8  1  0.17828200  0.79309100  0.73950300  1
  Si  Si9  1  0.67828200  0.20690900  0.76049700  1
  Si  Si10  1  0.32171800  0.79309100  0.23950300  1
  Si  Si11  1  0.82171800  0.20690900  0.26049700  1
  O  O12  1  0.11487400  0.15401900  0.52940000  1
  O  O13  1  0.61613900  0.26962800  0.54277600  1
  O  O14  1  0.12973300  0.46510700  0.74216300  1
  O  O15  1  0.36349600  0.86108100  0.74024300  1
  O  O16  1  0.86349600  0.13891900  0.75975700  1
  O  O17  1  0.62973300  0.53489300  0.75783700  1
  O  O18  1  0.11613900  0.73037200  0.95722400  1
  O  O19  1  0.61487400  0.84598100  0.97060000  1
  O  O20  1  0.38512600  0.15401900  0.02940000  1
  O  O21  1  0.88386100  0.26962800  0.04277600  1
  O  O22  1  0.37026700  0.46510700  0.24216300  1
  O  O23  1  0.13650400  0.86108100  0.24024300  1
  O  O24  1  0.63650400  0.13891900  0.25975700  1
  O  O25  1  0.87026700  0.53489300  0.25783700  1
  O  O26  1  0.38386100  0.73037200  0.45722400  1
  O  O27  1  0.88512600  0.84598100  0.47060000  1
