# generated using pymatgen
data_Li3V2P4(HO8)2
_symmetry_space_group_name_H-M   'P 1'
_cell_length_a   8.08562200
_cell_length_b   9.97687483
_cell_length_c   10.70573351
_cell_angle_alpha   90.09770849
_cell_angle_beta   90.03429484
_cell_angle_gamma   90.10832186
_symmetry_Int_Tables_number   1
_chemical_formula_structural   Li3V2P4(HO8)2
_chemical_formula_sum   'Li9 V6 P12 H6 O48'
_cell_volume   863.62041516
_cell_formula_units_Z   3
loop_
 _symmetry_equiv_pos_site_id
 _symmetry_equiv_pos_as_xyz
  1  'x, y, z'
loop_
 _atom_site_type_symbol
 _atom_site_label
 _atom_site_symmetry_multiplicity
 _atom_site_fract_x
 _atom_site_fract_y
 _atom_site_fract_z
 _atom_site_occupancy
  Li  Li0  1  0.13178400  0.23218700  0.07568700  1
  Li  Li1  1  0.86672600  0.09512900  0.25306200  1
  Li  Li2  1  0.36216600  0.73661100  0.08128200  1
  Li  Li3  1  0.63580300  0.60272600  0.25827900  1
  Li  Li4  1  0.12803500  0.56586300  0.41494900  1
  Li  Li5  1  0.36394000  0.40390700  0.74536600  1
  Li  Li6  1  0.63331500  0.26760100  0.92377100  1
  Li  Li7  1  0.63314600  0.93585900  0.58432500  1
  Li  Li8  1  0.12860500  0.89795700  0.74586100  1
  V  V9  1  0.49544700  0.16274600  0.17630000  1
  V  V10  1  0.00215500  0.00132400  0.49843200  1
  V  V11  1  0.99812000  0.67106700  0.16257400  1
  V  V12  1  0.50378300  0.49743100  0.50107300  1
  V  V13  1  0.99637600  0.33991600  0.82400300  1
  V  V14  1  0.50564500  0.82718800  0.83537600  1
  P  P15  1  0.84334900  0.36753500  0.12902300  1
  P  P16  1  0.34486800  0.46447500  0.20237600  1
  P  P17  1  0.65031900  0.19905800  0.46781500  1
  P  P18  1  0.14941600  0.30076100  0.53239300  1
  P  P19  1  0.84531100  0.03412400  0.80023500  1
  P  P20  1  0.65152100  0.86560500  0.13145700  1
  P  P21  1  0.34526200  0.13162100  0.87055600  1
  P  P22  1  0.15337900  0.96903100  0.19782800  1
  P  P23  1  0.84655100  0.70092900  0.46460300  1
  P  P24  1  0.34607500  0.79800400  0.53750500  1
  P  P25  1  0.65144000  0.53201400  0.80213400  1
  P  P26  1  0.15022500  0.63644200  0.86606700  1
  H  H27  1  0.49007900  0.50239100  0.01329700  1
  H  H28  1  0.99029200  0.33057100  0.32058000  1
  H  H29  1  0.49156100  0.16926300  0.67835200  1
  H  H30  1  0.48547900  0.83719900  0.35371900  1
  H  H31  1  0.98832600  0.66257900  0.64988400  1
  H  H32  1  0.98772900  0.99619100  0.98629600  1
  O  O33  1  0.05846900  0.04849600  0.09729400  1
  O  O34  1  0.66737200  0.01854700  0.16236400  1
  O  O35  1  0.32699500  0.03411600  0.21299300  1
  O  O36  1  0.95056800  0.35247000  0.00817700  1
  O  O37  1  0.67790300  0.29262500  0.10987000  1
  O  O38  1  0.32540800  0.31432200  0.16521700  1
  O  O39  1  0.94259300  0.28834700  0.23211800  1
  O  O40  1  0.54783600  0.18881600  0.33848600  1
  O  O41  1  0.81468500  0.12928500  0.43690100  1
  O  O42  1  0.43680400  0.54547300  0.09653800  1
  O  O43  1  0.82012100  0.51474000  0.16472100  1
  O  O44  1  0.16601300  0.15057900  0.50761100  1
  O  O45  1  0.56040300  0.12277800  0.57166200  1
  O  O46  1  0.17871100  0.53330500  0.22378800  1
  O  O47  1  0.95019700  0.01990700  0.68142300  1
  O  O48  1  0.45808800  0.47754700  0.31687000  1
  O  O49  1  0.54562300  0.85793200  0.00588600  1
  O  O50  1  0.06009100  0.37650300  0.42859200  1
  O  O51  1  0.82164000  0.80534900  0.11469600  1
  O  O52  1  0.66731500  0.34878400  0.49404100  1
  O  O53  1  0.17707400  0.81954700  0.16510300  1
  O  O54  1  0.31477700  0.37013000  0.56271600  1
  O  O55  1  0.54827100  0.78746200  0.22696900  1
  O  O56  1  0.04693600  0.31135300  0.66196700  1
  O  O57  1  0.95631300  0.68894300  0.34660600  1
  O  O58  1  0.44325300  0.21123000  0.76721400  1
  O  O59  1  0.67830600  0.63436200  0.44071000  1
  O  O60  1  0.82332800  0.18530600  0.83332500  1
  O  O61  1  0.32636600  0.64963100  0.50103100  1
  O  O62  1  0.17863000  0.20404500  0.88859400  1
  O  O63  1  0.94261200  0.62084400  0.56645000  1
  O  O64  1  0.45167000  0.14707800  0.99132600  1
  O  O65  1  0.54698400  0.51588700  0.68261700  1
  O  O66  1  0.04857900  0.98151700  0.31780800  1
  O  O67  1  0.82605700  0.47076300  0.78942900  1
  O  O68  1  0.45024300  0.87727000  0.43850700  1
  O  O69  1  0.82577500  0.85038100  0.50097700  1
  O  O70  1  0.17143400  0.48252400  0.83371300  1
  O  O71  1  0.55852500  0.45409600  0.90523500  1
  O  O72  1  0.18230400  0.86851500  0.56021700  1
  O  O73  1  0.45519300  0.81032700  0.65938100  1
  O  O74  1  0.06815700  0.71208900  0.76007400  1
  O  O75  1  0.66612400  0.68512300  0.82942800  1
  O  O76  1  0.32707300  0.69992400  0.88812300  1
  O  O77  1  0.05475000  0.64137400  0.98882600  1
  O  O78  1  0.67430200  0.96605500  0.78100500  1
  O  O79  1  0.32717100  0.98215300  0.83561100  1
  O  O80  1  0.94267700  0.95598300  0.90162600  1
