# generated using pymatgen
data_LiMn3(BO3)3
_symmetry_space_group_name_H-M   'P 1'
_cell_length_a   5.40066200
_cell_length_b   8.10310978
_cell_length_c   9.28054007
_cell_angle_alpha   105.09081249
_cell_angle_beta   106.47580545
_cell_angle_gamma   87.58485517
_symmetry_Int_Tables_number   1
_chemical_formula_structural   LiMn3(BO3)3
_chemical_formula_sum   'Li2 Mn6 B6 O18'
_cell_volume   375.80910519
_cell_formula_units_Z   2
loop_
 _symmetry_equiv_pos_site_id
 _symmetry_equiv_pos_as_xyz
  1  'x, y, z'
loop_
 _atom_site_type_symbol
 _atom_site_label
 _atom_site_symmetry_multiplicity
 _atom_site_fract_x
 _atom_site_fract_y
 _atom_site_fract_z
 _atom_site_occupancy
  Li  Li0  1  0.02230700  0.61525500  0.69975000  1
  Li  Li1  1  0.97769300  0.38474500  0.30025000  1
  Mn  Mn2  1  0.16196100  0.36545500  0.89623400  1
  Mn  Mn3  1  0.19016400  0.96998800  0.77956200  1
  Mn  Mn4  1  0.83803900  0.63454500  0.10376600  1
  Mn  Mn5  1  0.80983600  0.03001200  0.22043800  1
  Mn  Mn6  1  0.45748700  0.71044600  0.54232800  1
  Mn  Mn7  1  0.54251300  0.28955400  0.45767200  1
  B  B8  1  0.56635600  0.48246400  0.77713100  1
  B  B9  1  0.75562200  0.83926400  0.87393800  1
  B  B10  1  0.43364400  0.51753600  0.22286900  1
  B  B11  1  0.24437800  0.16073600  0.12606200  1
  B  B12  1  0.89958600  0.78308000  0.43404400  1
  B  B13  1  0.10041400  0.21692000  0.56595600  1
  O  O14  1  0.31765000  0.49434000  0.78605400  1
  O  O15  1  0.04420100  0.19095200  0.69755400  1
  O  O16  1  0.53760900  0.86088400  0.75516500  1
  O  O17  1  0.77639200  0.47019700  0.90097700  1
  O  O18  1  0.99113800  0.81805300  0.85187900  1
  O  O19  1  0.71261900  0.82813700  0.01294200  1
  O  O20  1  0.22360800  0.52980300  0.09902300  1
  O  O21  1  0.28738100  0.17186300  0.98705800  1
  O  O22  1  0.68235000  0.50566000  0.21394600  1
  O  O23  1  0.00886200  0.18194700  0.14812100  1
  O  O24  1  0.37011400  0.50689400  0.35758500  1
  O  O25  1  0.46239100  0.13911600  0.24483500  1
  O  O26  1  0.95579900  0.80904800  0.30244600  1
  O  O27  1  0.66235600  0.81742700  0.45417800  1
  O  O28  1  0.90647600  0.26248800  0.44927100  1
  O  O29  1  0.09352400  0.73751200  0.55072900  1
  O  O30  1  0.62988600  0.49310600  0.64241500  1
  O  O31  1  0.33764400  0.18257300  0.54582200  1
