# generated using pymatgen
data_Li10Zn3(GeO4)4
_symmetry_space_group_name_H-M   'P 1'
_cell_length_a   5.23128500
_cell_length_b   6.39117044
_cell_length_c   10.99877016
_cell_angle_alpha   90.21476274
_cell_angle_beta   90.37445161
_cell_angle_gamma   90.42332329
_symmetry_Int_Tables_number   1
_chemical_formula_structural   Li10Zn3(GeO4)4
_chemical_formula_sum   'Li10 Zn3 Ge4 O16'
_cell_volume   367.71271587
_cell_formula_units_Z   1
loop_
 _symmetry_equiv_pos_site_id
 _symmetry_equiv_pos_as_xyz
  1  'x, y, z'
loop_
 _atom_site_type_symbol
 _atom_site_label
 _atom_site_symmetry_multiplicity
 _atom_site_fract_x
 _atom_site_fract_y
 _atom_site_fract_z
 _atom_site_occupancy
  Li  Li0  1  0.69089700  0.74533400  0.07200000  1
  Li  Li1  1  0.32278200  0.49719000  0.16425200  1
  Li  Li2  1  0.82180900  0.99616200  0.33154500  1
  Li  Li3  1  0.19260600  0.24337800  0.42458900  1
  Li  Li4  1  0.80635000  0.76417100  0.58105900  1
  Li  Li5  1  0.19200800  0.99845100  0.66229300  1
  Li  Li6  1  0.98305700  0.22175300  0.80835300  1
  Li  Li7  1  0.64399400  0.97351500  0.83261100  1
  Li  Li8  1  0.65894300  0.52070500  0.83626900  1
  Li  Li9  1  0.35892700  0.24991400  0.93526900  1
  Zn  Zn10  1  0.32370400  0.00182400  0.16552300  1
  Zn  Zn11  1  0.81946500  0.50238200  0.33056200  1
  Zn  Zn12  1  0.19514200  0.50703200  0.66141100  1
  Ge  Ge13  1  0.82989500  0.24931500  0.08143000  1
  Ge  Ge14  1  0.32456800  0.74882100  0.41111400  1
  Ge  Ge15  1  0.68513600  0.24928000  0.58699800  1
  Ge  Ge16  1  0.15833300  0.75766800  0.91302200  1
  O  O17  1  0.29612000  0.74710300  0.06199900  1
  O  O18  1  0.17179000  0.25019700  0.08788700  1
  O  O19  1  0.71122500  0.47505600  0.15957300  1
  O  O20  1  0.71217300  0.02430500  0.16022800  1
  O  O21  1  0.21083500  0.97647700  0.33568900  1
  O  O22  1  0.21027900  0.51939400  0.33595300  1
  O  O23  1  0.66622400  0.74946300  0.41290600  1
  O  O24  1  0.79621400  0.24671400  0.43449300  1
  O  O25  1  0.20563900  0.75828400  0.56176600  1
  O  O26  1  0.34208600  0.25143700  0.58855900  1
  O  O27  1  0.80150400  0.47544600  0.66820100  1
  O  O28  1  0.80462200  0.03517000  0.67185500  1
  O  O29  1  0.26569100  0.99081200  0.83808200  1
  O  O30  1  0.27148000  0.51940300  0.83792100  1
  O  O31  1  0.82180100  0.75214100  0.91230800  1
  O  O32  1  0.72579900  0.25170500  0.92788100  1
