# generated using pymatgen
data_LiMnV(P2O7)2
_symmetry_space_group_name_H-M   'P 1'
_cell_length_a   7.03219000
_cell_length_b   8.15945794
_cell_length_c   18.39287034
_cell_angle_alpha   90.26054958
_cell_angle_beta   92.59685500
_cell_angle_gamma   92.04150499
_symmetry_Int_Tables_number   1
_chemical_formula_structural   LiMnV(P2O7)2
_chemical_formula_sum   'Li4 Mn4 V4 P16 O56'
_cell_volume   1053.58887660
_cell_formula_units_Z   4
loop_
 _symmetry_equiv_pos_site_id
 _symmetry_equiv_pos_as_xyz
  1  'x, y, z'
loop_
 _atom_site_type_symbol
 _atom_site_label
 _atom_site_symmetry_multiplicity
 _atom_site_fract_x
 _atom_site_fract_y
 _atom_site_fract_z
 _atom_site_occupancy
  Li  Li0  1  0.38034900  0.86338800  0.70804200  1
  Li  Li1  1  0.12991600  0.86317500  0.45791100  1
  Li  Li2  1  0.87897000  0.86331400  0.20736000  1
  Li  Li3  1  0.37214700  0.35800100  0.04329700  1
  Mn  Mn4  1  0.07106100  0.00690000  0.80440700  1
  Mn  Mn5  1  0.82081300  0.00662800  0.55442900  1
  Mn  Mn6  1  0.57014000  0.00709200  0.30439400  1
  Mn  Mn7  1  0.32968700  0.99308000  0.05152900  1
  V  V8  1  0.67022000  0.50601100  0.94498100  1
  V  V9  1  0.41834700  0.49383900  0.69892100  1
  V  V10  1  0.16826200  0.49395800  0.44918900  1
  V  V11  1  0.91846000  0.49556300  0.19920300  1
  P  P12  1  0.41813200  0.17480500  0.89982200  1
  P  P13  1  0.03513300  0.78106900  0.94494900  1
  P  P14  1  0.71763300  0.28606600  0.80390700  1
  P  P15  1  0.33323800  0.67863800  0.84885300  1
  P  P16  1  0.78739300  0.78154100  0.69544000  1
  P  P17  1  0.16950700  0.17636700  0.64891100  1
  P  P18  1  0.46855000  0.28723700  0.55374300  1
  P  P19  1  0.08370400  0.67913000  0.59937200  1
  P  P20  1  0.91940800  0.17639700  0.39887700  1
  P  P21  1  0.53708600  0.78148400  0.44546300  1
  P  P22  1  0.83374800  0.67930600  0.34944200  1
  P  P23  1  0.21839500  0.28753200  0.30379400  1
  P  P24  1  0.67111100  0.17701900  0.14842400  1
  P  P25  1  0.28743100  0.78178000  0.19510200  1
  P  P26  1  0.96215000  0.29072100  0.05272400  1
  P  P27  1  0.58396300  0.68196100  0.10031200  1
  O  O28  1  0.82833200  0.33923200  0.98875300  1
  O  O29  1  0.85955400  0.67929200  0.96600600  1
  O  O30  1  0.99013700  0.93213100  0.90015600  1
  O  O31  1  0.42607800  0.03820900  0.95567200  1
  O  O32  1  0.45063300  0.34479800  0.93756900  1
  O  O33  1  0.50848000  0.66260900  0.90237700  1
  O  O34  1  0.76001700  0.44009500  0.85224700  1
  O  O35  1  0.59882200  0.15189400  0.85045300  1
  O  O36  1  0.15160000  0.65232900  0.89793300  1
  O  O37  1  0.88665300  0.20014100  0.77922100  1
  O  O38  1  0.24014200  0.17466200  0.84967600  1
  O  O39  1  0.90909500  0.82554500  0.76386200  1
  O  O40  1  0.32487200  0.84417300  0.81261000  1
  O  O41  1  0.32157700  0.53520400  0.79449300  1
  O  O42  1  0.58311300  0.33564200  0.73907300  1
  O  O43  1  0.60343700  0.68704400  0.71486300  1
  O  O44  1  0.89890200  0.65249600  0.64756800  1
  O  O45  1  0.73566400  0.93238700  0.65048400  1
  O  O46  1  0.98899000  0.17277900  0.60044800  1
  O  O47  1  0.18737500  0.03866800  0.70484900  1
  O  O48  1  0.20001600  0.34777600  0.68366100  1
  O  O49  1  0.25913300  0.67183900  0.65315700  1
  O  O50  1  0.50532400  0.43952800  0.60339500  1
  O  O51  1  0.34933100  0.14993700  0.59872900  1
  O  O52  1  0.63835900  0.20223400  0.52914000  1
  O  O53  1  0.65797500  0.82586700  0.51409800  1
  O  O54  1  0.93737900  0.03870100  0.45476300  1
  O  O55  1  0.07188900  0.84421200  0.56229500  1
  O  O56  1  0.95006000  0.34769200  0.43369400  1
  O  O57  1  0.07359100  0.53528700  0.54533600  1
  O  O58  1  0.33372700  0.33651700  0.48889100  1
  O  O59  1  0.35334200  0.68701600  0.46502000  1
  O  O60  1  0.64924900  0.65260600  0.39785100  1
  O  O61  1  0.48537400  0.93229600  0.40055200  1
  O  O62  1  0.73883400  0.17270200  0.35033600  1
  O  O63  1  0.82130600  0.84431400  0.31222400  1
  O  O64  1  0.82343300  0.53537400  0.29548100  1
  O  O65  1  0.00920900  0.67193900  0.40320200  1
  O  O66  1  0.25536800  0.43947700  0.35350500  1
  O  O67  1  0.09903200  0.14997100  0.34854000  1
  O  O68  1  0.38808000  0.20229800  0.27892700  1
  O  O69  1  0.40693900  0.82768900  0.26391300  1
  O  O70  1  0.68545400  0.03886900  0.20377000  1
  O  O71  1  0.70074800  0.34786000  0.18351200  1
  O  O72  1  0.76040100  0.66960400  0.15353100  1
  O  O73  1  0.08439700  0.33767300  0.23883200  1
  O  O74  1  0.10236900  0.68988100  0.21508100  1
  O  O75  1  0.85030100  0.15040000  0.09813400  1
  O  O76  1  0.39891000  0.64887700  0.14950400  1
  O  O77  1  0.24025300  0.93133100  0.14839200  1
  O  O78  1  0.48930600  0.17646200  0.09938100  1
  O  O79  1  0.57333400  0.84823000  0.06707400  1
  O  O80  1  0.56530000  0.53723000  0.04613800  1
  O  O81  1  0.00513000  0.44134900  0.10328800  1
  O  O82  1  0.14238500  0.21411000  0.03066000  1
  O  O83  1  0.15358800  0.82204400  0.01488400  1
