# generated using pymatgen
data_LiP3W2O13
_symmetry_space_group_name_H-M   'P 1'
_cell_length_a   6.46688200
_cell_length_b   7.49744933
_cell_length_c   11.28038370
_cell_angle_alpha   74.91623199
_cell_angle_beta   85.49783823
_cell_angle_gamma   80.48157453
_symmetry_Int_Tables_number   1
_chemical_formula_structural   LiP3W2O13
_chemical_formula_sum   'Li2 P6 W4 O26'
_cell_volume   520.45526947
_cell_formula_units_Z   2
loop_
 _symmetry_equiv_pos_site_id
 _symmetry_equiv_pos_as_xyz
  1  'x, y, z'
loop_
 _atom_site_type_symbol
 _atom_site_label
 _atom_site_symmetry_multiplicity
 _atom_site_fract_x
 _atom_site_fract_y
 _atom_site_fract_z
 _atom_site_occupancy
  Li  Li0  1  0.26524600  0.56592900  0.79537100  1
  Li  Li1  1  0.73475400  0.43407100  0.20462900  1
  P  P2  1  0.11788800  0.47443600  0.30784200  1
  P  P3  1  0.25920500  0.80142600  0.33402100  1
  P  P4  1  0.26158600  0.92583500  0.89233800  1
  P  P5  1  0.73841400  0.07416500  0.10766200  1
  P  P6  1  0.74079500  0.19857400  0.66597900  1
  P  P7  1  0.88211200  0.52556400  0.69215800  1
  W  W8  1  0.22537200  0.21114800  0.08610400  1
  W  W9  1  0.24098300  0.19530000  0.59599900  1
  W  W10  1  0.75901700  0.80470000  0.40400100  1
  W  W11  1  0.77462800  0.78885200  0.91389600  1
  O  O12  1  0.13225700  0.38613000  0.19947000  1
  O  O13  1  0.11349200  0.46180100  0.66145600  1
  O  O14  1  0.07589900  0.78306500  0.42936800  1
  O  O15  1  0.22291700  0.10191700  0.78573600  1
  O  O16  1  0.24613000  0.35197900  0.41626400  1
  O  O17  1  0.09103100  0.79873000  0.90133700  1
  O  O18  1  0.23729700  0.65451500  0.25362100  1
  O  O19  1  0.24992400  0.37869600  0.94500600  1
  O  O20  1  0.27071600  0.98536100  0.01205900  1
  O  O21  1  0.24350300  0.99518500  0.24903800  1
  O  O22  1  0.53350600  0.20582600  0.12767100  1
  O  O23  1  0.30828100  0.96830800  0.58020500  1
  O  O24  1  0.53001000  0.26874400  0.60517800  1
  O  O25  1  0.46999000  0.73125600  0.39482200  1
  O  O26  1  0.69171900  0.03169200  0.41979500  1
  O  O27  1  0.46649400  0.79417400  0.87232900  1
  O  O28  1  0.75649700  0.00481500  0.75096200  1
  O  O29  1  0.72928400  0.01463900  0.98794100  1
  O  O30  1  0.75007600  0.62130400  0.05499400  1
  O  O31  1  0.76270300  0.34548500  0.74637900  1
  O  O32  1  0.90896900  0.20127000  0.09866300  1
  O  O33  1  0.75387000  0.64802100  0.58373600  1
  O  O34  1  0.77708300  0.89808300  0.21426400  1
  O  O35  1  0.92410100  0.21693500  0.57063200  1
  O  O36  1  0.88650800  0.53819900  0.33854400  1
  O  O37  1  0.86774300  0.61387000  0.80053000  1
