# generated using pymatgen
data_Li3FeO3
_symmetry_space_group_name_H-M   'P 1'
_cell_length_a   11.27619700
_cell_length_b   5.41526200
_cell_length_c   5.72410402
_cell_angle_alpha   58.47466435
_cell_angle_beta   90.00000000
_cell_angle_gamma   90.00000000
_symmetry_Int_Tables_number   1
_chemical_formula_structural   Li3FeO3
_chemical_formula_sum   'Li12 Fe4 O12'
_cell_volume   297.94609037
_cell_formula_units_Z   4
loop_
 _symmetry_equiv_pos_site_id
 _symmetry_equiv_pos_as_xyz
  1  'x, y, z'
loop_
 _atom_site_type_symbol
 _atom_site_label
 _atom_site_symmetry_multiplicity
 _atom_site_fract_x
 _atom_site_fract_y
 _atom_site_fract_z
 _atom_site_occupancy
  Li  Li0  1  0.23974900  0.45353800  0.71086100  1
  Li  Li1  1  0.49441400  0.50613900  0.76451100  1
  Li  Li2  1  0.99441400  0.49386100  0.73548900  1
  Li  Li3  1  0.73974900  0.54646200  0.78913900  1
  Li  Li4  1  0.62373900  0.91938600  0.33881300  1
  Li  Li5  1  0.12373900  0.08061400  0.16118700  1
  Li  Li6  1  0.87626100  0.91938600  0.83881300  1
  Li  Li7  1  0.37626100  0.08061400  0.66118700  1
  Li  Li8  1  0.26025100  0.45353800  0.21086100  1
  Li  Li9  1  0.00558600  0.50613900  0.26451100  1
  Li  Li10  1  0.50558600  0.49386100  0.23548900  1
  Li  Li11  1  0.76025100  0.54646200  0.28913900  1
  Fe  Fe12  1  0.36046900  0.93066200  0.23474400  1
  Fe  Fe13  1  0.86046900  0.06933800  0.26525600  1
  Fe  Fe14  1  0.13953100  0.93066200  0.73474400  1
  Fe  Fe15  1  0.63953100  0.06933800  0.76525600  1
  O  O16  1  0.36891600  0.52142400  0.45098500  1
  O  O17  1  0.98888500  0.82217800  0.34501700  1
  O  O18  1  0.74914500  0.97459700  0.06161400  1
  O  O19  1  0.13108400  0.52142400  0.95098500  1
  O  O20  1  0.24914500  0.02540300  0.43838600  1
  O  O21  1  0.51111500  0.82217800  0.84501700  1
  O  O22  1  0.48888500  0.17782200  0.15498300  1
  O  O23  1  0.75085500  0.97459700  0.56161400  1
  O  O24  1  0.86891600  0.47857600  0.04901500  1
  O  O25  1  0.25085500  0.02540300  0.93838600  1
  O  O26  1  0.01111500  0.17782200  0.65498300  1
  O  O27  1  0.63108400  0.47857600  0.54901500  1
