# generated using pymatgen
data_Li2FePCO7
_symmetry_space_group_name_H-M   'P 1'
_cell_length_a   5.09051500
_cell_length_b   6.51072444
_cell_length_c   16.63003167
_cell_angle_alpha   90.54223525
_cell_angle_beta   94.86125423
_cell_angle_gamma   90.23214153
_symmetry_Int_Tables_number   1
_chemical_formula_structural   Li2FePCO7
_chemical_formula_sum   'Li8 Fe4 P4 C4 O28'
_cell_volume   549.15439469
_cell_formula_units_Z   4
loop_
 _symmetry_equiv_pos_site_id
 _symmetry_equiv_pos_as_xyz
  1  'x, y, z'
loop_
 _atom_site_type_symbol
 _atom_site_label
 _atom_site_symmetry_multiplicity
 _atom_site_fract_x
 _atom_site_fract_y
 _atom_site_fract_z
 _atom_site_occupancy
  Li  Li0  1  0.76086300  0.73592500  0.95133600  1
  Li  Li1  1  0.24782800  0.96845900  0.86219500  1
  Li  Li2  1  0.75033300  0.03302600  0.63689000  1
  Li  Li3  1  0.23841800  0.25036600  0.54838300  1
  Li  Li4  1  0.76200300  0.75468300  0.45173000  1
  Li  Li5  1  0.24818100  0.53385500  0.36197300  1
  Li  Li6  1  0.75314700  0.03118000  0.13824700  1
  Li  Li7  1  0.24054100  0.26841900  0.04743800  1
  Fe  Fe8  1  0.79848700  0.26172600  0.83448800  1
  Fe  Fe9  1  0.20129200  0.74261900  0.66532800  1
  Fe  Fe10  1  0.79924400  0.23934800  0.33492100  1
  Fe  Fe11  1  0.19974400  0.73418700  0.16534800  1
  P  P12  1  0.72205100  0.76048800  0.78983500  1
  P  P13  1  0.27781600  0.24303200  0.71011700  1
  P  P14  1  0.72217900  0.74806300  0.29038800  1
  P  P15  1  0.27748000  0.24593200  0.20974400  1
  C  C16  1  0.70327900  0.23247900  0.97982800  1
  C  C17  1  0.29788400  0.74835000  0.51999300  1
  C  C18  1  0.70298300  0.25243600  0.47995500  1
  C  C19  1  0.29666600  0.76955400  0.02042000  1
  O  O20  1  0.94830700  0.25059300  0.96174900  1
  O  O21  1  0.36569500  0.78228200  0.94882800  1
  O  O22  1  0.52648000  0.23604000  0.91761900  1
  O  O23  1  0.82441000  0.93616500  0.84875800  1
  O  O24  1  0.78410600  0.56386600  0.83934600  1
  O  O25  1  0.14465200  0.23300900  0.78998400  1
  O  O26  1  0.41853700  0.78277200  0.76974000  1
  O  O27  1  0.58113800  0.21866000  0.73013100  1
  O  O28  1  0.85527400  0.76951600  0.70993900  1
  O  O29  1  0.21777600  0.44002000  0.66081300  1
  O  O30  1  0.17362000  0.06761000  0.65108600  1
  O  O31  1  0.47347900  0.77428700  0.58190600  1
  O  O32  1  0.63329100  0.22382900  0.55069300  1
  O  O33  1  0.05190800  0.74396100  0.53858300  1
  O  O34  1  0.94900500  0.25079500  0.46167000  1
  O  O35  1  0.36665400  0.72410900  0.44907000  1
  O  O36  1  0.52807800  0.27950600  0.41841800  1
  O  O37  1  0.78115700  0.93560000  0.34761400  1
  O  O38  1  0.82825600  0.56368400  0.34207400  1
  O  O39  1  0.14556400  0.27269100  0.28940400  1
  O  O40  1  0.41907200  0.72135200  0.26994200  1
  O  O41  1  0.58058800  0.22252900  0.23026000  1
  O  O42  1  0.85406200  0.77060600  0.21071500  1
  O  O43  1  0.21782600  0.43075400  0.15252500  1
  O  O44  1  0.17196300  0.05859500  0.15828500  1
  O  O45  1  0.47255200  0.76918600  0.08279500  1
  O  O46  1  0.63490100  0.21530800  0.05123400  1
  O  O47  1  0.05122700  0.75251900  0.03825900  1
