# generated using pymatgen
data_Li3MnF6
_symmetry_space_group_name_H-M   'P 1'
_cell_length_a   8.56539361
_cell_length_b   8.56539361
_cell_length_c   10.39441800
_cell_angle_alpha   83.53446114
_cell_angle_beta   83.53446114
_cell_angle_gamma   61.19188535
_symmetry_Int_Tables_number   1
_chemical_formula_structural   Li3MnF6
_chemical_formula_sum   'Li18 Mn6 F36'
_cell_volume   662.47398173
_cell_formula_units_Z   6
loop_
 _symmetry_equiv_pos_site_id
 _symmetry_equiv_pos_as_xyz
  1  'x, y, z'
loop_
 _atom_site_type_symbol
 _atom_site_label
 _atom_site_symmetry_multiplicity
 _atom_site_fract_x
 _atom_site_fract_y
 _atom_site_fract_z
 _atom_site_occupancy
  Li  Li0  1  0.94260600  0.65882700  0.93057500  1
  Li  Li1  1  0.65882700  0.94260600  0.43057500  1
  Li  Li2  1  0.47574900  0.85809500  0.95153000  1
  Li  Li3  1  0.85809500  0.47574900  0.45153000  1
  Li  Li4  1  0.99204000  0.28590200  0.72231200  1
  Li  Li5  1  0.28590200  0.99204000  0.22231200  1
  Li  Li6  1  0.67089300  0.37999200  0.96704300  1
  Li  Li7  1  0.37999200  0.67089300  0.46704300  1
  Li  Li8  1  0.19772500  0.80227500  0.75000000  1
  Li  Li9  1  0.80227500  0.19772500  0.25000000  1
  Li  Li10  1  0.62000800  0.32910700  0.53295700  1
  Li  Li11  1  0.32910700  0.62000800  0.03295700  1
  Li  Li12  1  0.71409800  0.00796000  0.77768800  1
  Li  Li13  1  0.00796000  0.71409800  0.27768800  1
  Li  Li14  1  0.14190500  0.52425100  0.54847000  1
  Li  Li15  1  0.52425100  0.14190500  0.04847000  1
  Li  Li16  1  0.34117300  0.05739400  0.56942500  1
  Li  Li17  1  0.05739400  0.34117300  0.06942500  1
  Mn  Mn18  1  0.66335100  0.66653900  0.70309400  1
  Mn  Mn19  1  0.66653900  0.66335100  0.20309400  1
  Mn  Mn20  1  0.00000000  0.00000000  0.50000000  1
  Mn  Mn21  1  0.00000000  0.00000000  0.00000000  1
  Mn  Mn22  1  0.33346100  0.33664900  0.79690600  1
  Mn  Mn23  1  0.33664900  0.33346100  0.29690600  1
  F  F24  1  0.93371500  0.92532900  0.66367600  1
  F  F25  1  0.92532900  0.93371500  0.16367600  1
  F  F26  1  0.73215500  0.78277800  0.84569900  1
  F  F27  1  0.58609500  0.89361200  0.60764200  1
  F  F28  1  0.78277800  0.73215500  0.34569900  1
  F  F29  1  0.89125100  0.57422800  0.61106600  1
  F  F30  1  0.89361200  0.58609500  0.10764200  1
  F  F31  1  0.57422800  0.89125100  0.11106600  1
  F  F32  1  0.75881700  0.44428200  0.80271400  1
  F  F33  1  0.44004200  0.75341700  0.80072500  1
  F  F34  1  0.44428200  0.75881700  0.30271400  1
  F  F35  1  0.75341700  0.44004200  0.30072500  1
  F  F36  1  0.59967000  0.56160200  0.55482200  1
  F  F37  1  0.91427900  0.23668800  0.56021900  1
  F  F38  1  0.25290100  0.89331800  0.57011000  1
  F  F39  1  0.56160200  0.59967000  0.05482200  1
  F  F40  1  0.23668800  0.91427900  0.06022000  1
  F  F41  1  0.89331800  0.25290100  0.07011000  1
  F  F42  1  0.10668200  0.74709900  0.92989000  1
  F  F43  1  0.76331200  0.08572100  0.93978100  1
  F  F44  1  0.43839800  0.40033000  0.94517800  1
  F  F45  1  0.74709900  0.10668200  0.42989000  1
  F  F46  1  0.08572100  0.76331200  0.43978100  1
  F  F47  1  0.40033000  0.43839800  0.44517800  1
  F  F48  1  0.24658300  0.55995800  0.69927500  1
  F  F49  1  0.55571800  0.24118300  0.69728600  1
  F  F50  1  0.55995800  0.24658300  0.19927500  1
  F  F51  1  0.24118300  0.55571800  0.19728600  1
  F  F52  1  0.42577200  0.10874900  0.88893400  1
  F  F53  1  0.10638800  0.41390500  0.89235800  1
  F  F54  1  0.10874900  0.42577200  0.38893400  1
  F  F55  1  0.21722200  0.26784500  0.65430100  1
  F  F56  1  0.41390500  0.10638800  0.39235800  1
  F  F57  1  0.26784500  0.21722200  0.15430100  1
  F  F58  1  0.07467100  0.06628500  0.83632400  1
  F  F59  1  0.06628500  0.07467100  0.33632400  1
