# generated using pymatgen
data_LiCr10O15
_symmetry_space_group_name_H-M   'P 1'
_cell_length_a   7.77987602
_cell_length_b   7.77987602
_cell_length_c   9.44580200
_cell_angle_alpha   90.00000000
_cell_angle_beta   90.00000000
_cell_angle_gamma   96.26323977
_symmetry_Int_Tables_number   1
_chemical_formula_structural   LiCr10O15
_chemical_formula_sum   'Li2 Cr20 O30'
_cell_volume   568.30854547
_cell_formula_units_Z   2
loop_
 _symmetry_equiv_pos_site_id
 _symmetry_equiv_pos_as_xyz
  1  'x, y, z'
loop_
 _atom_site_type_symbol
 _atom_site_label
 _atom_site_symmetry_multiplicity
 _atom_site_fract_x
 _atom_site_fract_y
 _atom_site_fract_z
 _atom_site_occupancy
  Li  Li0  1  0.00000000  0.00000000  0.00000000  1
  Li  Li1  1  0.50000000  0.50000000  0.50000000  1
  Cr  Cr2  1  0.18794100  0.18794100  0.63324800  1
  Cr  Cr3  1  0.31205900  0.31205900  0.13324800  1
  Cr  Cr4  1  0.09758200  0.58060600  0.38715200  1
  Cr  Cr5  1  0.08060600  0.59758200  0.11284800  1
  Cr  Cr6  1  0.59758200  0.08060600  0.11284800  1
  Cr  Cr7  1  0.58060600  0.09758200  0.38715200  1
  Cr  Cr8  1  0.29069900  0.54389600  0.85254800  1
  Cr  Cr9  1  0.04389600  0.79069900  0.64745200  1
  Cr  Cr10  1  0.79069900  0.04389600  0.64745200  1
  Cr  Cr11  1  0.54389600  0.29069900  0.85254800  1
  Cr  Cr12  1  0.70930100  0.45610400  0.14745200  1
  Cr  Cr13  1  0.20930100  0.95610400  0.35254800  1
  Cr  Cr14  1  0.95610400  0.20930100  0.35254800  1
  Cr  Cr15  1  0.45610400  0.70930100  0.14745200  1
  Cr  Cr16  1  0.90241800  0.41939400  0.61284800  1
  Cr  Cr17  1  0.40241800  0.91939400  0.88715200  1
  Cr  Cr18  1  0.91939400  0.40241800  0.88715200  1
  Cr  Cr19  1  0.41939400  0.90241800  0.61284800  1
  Cr  Cr20  1  0.68794100  0.68794100  0.86675200  1
  Cr  Cr21  1  0.81205900  0.81205900  0.36675200  1
  O  O22  1  0.13872800  0.13872800  0.22927300  1
  O  O23  1  0.10063000  0.36110100  0.49246600  1
  O  O24  1  0.36110100  0.10063000  0.49246600  1
  O  O25  1  0.39937000  0.13889900  0.99246600  1
  O  O26  1  0.13889900  0.39937000  0.99246600  1
  O  O27  1  0.56638900  0.06638900  0.75000000  1
  O  O28  1  0.06638900  0.56638900  0.75000000  1
  O  O29  1  0.36127200  0.36127200  0.72927300  1
  O  O30  1  0.03868300  0.77530500  0.26124300  1
  O  O31  1  0.27530500  0.53868300  0.23875700  1
  O  O32  1  0.77530500  0.03868300  0.26124300  1
  O  O33  1  0.53868300  0.27530500  0.23875700  1
  O  O34  1  0.74176100  0.25823900  0.00000000  1
  O  O35  1  0.50000000  0.50000000  0.00000000  1
  O  O36  1  0.25823900  0.74176100  0.00000000  1
  O  O37  1  0.00000000  0.00000000  0.50000000  1
  O  O38  1  0.75823900  0.24176100  0.50000000  1
  O  O39  1  0.24176100  0.75823900  0.50000000  1
  O  O40  1  0.96131700  0.22469500  0.73875700  1
  O  O41  1  0.46131700  0.72469500  0.76124300  1
  O  O42  1  0.22469500  0.96131700  0.73875700  1
  O  O43  1  0.72469500  0.46131700  0.76124300  1
  O  O44  1  0.63872800  0.63872800  0.27072700  1
  O  O45  1  0.43361100  0.93361100  0.25000000  1
  O  O46  1  0.93361100  0.43361100  0.25000000  1
  O  O47  1  0.60063000  0.86110100  0.00753400  1
  O  O48  1  0.86110100  0.60063000  0.00753400  1
  O  O49  1  0.89937000  0.63889900  0.50753400  1
  O  O50  1  0.63889900  0.89937000  0.50753400  1
  O  O51  1  0.86127200  0.86127200  0.77072700  1
