# generated using pymatgen
data_Li4TiMn3O8
_symmetry_space_group_name_H-M   'P 1'
_cell_length_a   5.96131300
_cell_length_b   6.07887458
_cell_length_c   14.81995044
_cell_angle_alpha   87.83523516
_cell_angle_beta   88.17908501
_cell_angle_gamma   60.84435395
_symmetry_Int_Tables_number   1
_chemical_formula_structural   Li4TiMn3O8
_chemical_formula_sum   'Li12 Ti3 Mn9 O24'
_cell_volume   468.61265187
_cell_formula_units_Z   3
loop_
 _symmetry_equiv_pos_site_id
 _symmetry_equiv_pos_as_xyz
  1  'x, y, z'
loop_
 _atom_site_type_symbol
 _atom_site_label
 _atom_site_symmetry_multiplicity
 _atom_site_fract_x
 _atom_site_fract_y
 _atom_site_fract_z
 _atom_site_occupancy
  Li  Li0  1  0.99395800  0.49421400  0.49727300  1
  Li  Li1  1  0.83216200  0.81497500  0.33125000  1
  Li  Li2  1  0.99744000  0.99978700  0.49800300  1
  Li  Li3  1  0.83051100  0.33155300  0.33295600  1
  Li  Li4  1  0.66643300  0.66393500  0.16653200  1
  Li  Li5  1  0.67459100  0.16930800  0.17094000  1
  Li  Li6  1  0.33432500  0.83323300  0.83277600  1
  Li  Li7  1  0.50054700  0.50401300  0.99634100  1
  Li  Li8  1  0.49753000  0.00462500  0.00000200  1
  Li  Li9  1  0.33344700  0.33629000  0.83410900  1
  Li  Li10  1  0.17242900  0.66071000  0.66676500  1
  Li  Li11  1  0.16897800  0.16252000  0.67117300  1
  Ti  Ti12  1  0.68551900  0.65318800  0.66509500  1
  Ti  Ti13  1  0.98486600  0.01006400  0.00130500  1
  Ti  Ti14  1  0.33137600  0.33501500  0.33374000  1
  Mn  Mn15  1  0.83347400  0.83295800  0.83334000  1
  Mn  Mn16  1  0.49748700  0.99678100  0.50116700  1
  Mn  Mn17  1  0.16832800  0.66986900  0.16513500  1
  Mn  Mn18  1  0.83420300  0.33269000  0.83333300  1
  Mn  Mn19  1  0.68124300  0.15528900  0.66635700  1
  Mn  Mn20  1  0.32927400  0.83557600  0.33319700  1
  Mn  Mn21  1  0.49947900  0.49501000  0.50082200  1
  Mn  Mn22  1  0.16538100  0.17352900  0.16585600  1
  Mn  Mn23  1  0.98797700  0.50903300  0.00025600  1
  O  O24  1  0.82542100  0.87251400  0.08039900  1
  O  O25  1  0.84272700  0.79242500  0.58566600  1
  O  O26  1  0.98284700  0.49077600  0.74882100  1
  O  O27  1  0.83477300  0.33509700  0.07270200  1
  O  O28  1  0.68675400  0.66338200  0.92369100  1
  O  O29  1  0.52151400  0.97261800  0.73423000  1
  O  O30  1  0.98225500  0.00086900  0.74308300  1
  O  O31  1  0.83424900  0.32988600  0.59408800  1
  O  O32  1  0.62467600  0.67367900  0.41528600  1
  O  O33  1  0.68620600  0.17373000  0.91814200  1
  O  O34  1  0.37385000  0.77602600  0.58488300  1
  O  O35  1  0.52754200  0.49874800  0.75640100  1
  O  O36  1  0.63340800  0.20761600  0.41778800  1
  O  O37  1  0.49610600  0.47737400  0.25235900  1
  O  O38  1  0.29550500  0.88791300  0.08139600  1
  O  O39  1  0.37948800  0.31637100  0.58703300  1
  O  O40  1  0.16582600  0.66196300  0.40197600  1
  O  O41  1  0.49386500  0.00922800  0.26461000  1
  O  O42  1  0.28845500  0.34856600  0.08008800  1
  O  O43  1  0.14802100  0.69081000  0.93197600  1
  O  O44  1  0.16668300  0.19094900  0.41430000  1
  O  O45  1  0.02534500  0.46700800  0.24990400  1
  O  O46  1  0.14165500  0.16564100  0.91048200  1
  O  O47  1  0.03647100  0.99742800  0.24978700  1
