# generated using pymatgen
data_LiMnPO4
_symmetry_space_group_name_H-M   'P 1'
_cell_length_a   4.82458804
_cell_length_b   7.71038900
_cell_length_c   8.66790107
_cell_angle_alpha   90.00102091
_cell_angle_beta   89.98600371
_cell_angle_gamma   90.00029119
_symmetry_Int_Tables_number   1
_chemical_formula_structural   LiMnPO4
_chemical_formula_sum   'Li4 Mn4 P4 O16'
_cell_volume   322.44114714
_cell_formula_units_Z   4
loop_
 _symmetry_equiv_pos_site_id
 _symmetry_equiv_pos_as_xyz
  1  'x, y, z'
loop_
 _atom_site_type_symbol
 _atom_site_label
 _atom_site_symmetry_multiplicity
 _atom_site_fract_x
 _atom_site_fract_y
 _atom_site_fract_z
 _atom_site_occupancy
  Li  Li0  1  0.03720900  0.14110700  0.02350400  1
  Li  Li1  1  0.53722400  0.35888700  0.52351300  1
  Li  Li2  1  0.03738900  0.64121000  0.47645300  1
  Li  Li3  1  0.53735000  0.85878900  0.97643400  1
  Mn  Mn4  1  0.97724300  0.52938900  0.82204400  1
  Mn  Mn5  1  0.47739000  0.97062600  0.32197000  1
  Mn  Mn6  1  0.97716000  0.02941900  0.67836000  1
  Mn  Mn7  1  0.47718100  0.47060600  0.17840500  1
  P  P8  1  0.55025600  0.24533000  0.85932400  1
  P  P9  1  0.05031300  0.25464700  0.35929900  1
  P  P10  1  0.55034900  0.74524300  0.64062000  1
  P  P11  1  0.05037500  0.75476400  0.14063800  1
  O  O12  1  0.66210300  0.08773800  0.94723200  1
  O  O13  1  0.16213200  0.41224700  0.44720900  1
  O  O14  1  0.66189600  0.58791700  0.55222300  1
  O  O15  1  0.16188900  0.91208500  0.05223200  1
  O  O16  1  0.13119500  0.08695100  0.45135200  1
  O  O17  1  0.63108900  0.41303800  0.95139000  1
  O  O18  1  0.13137900  0.58680400  0.04894100  1
  O  O19  1  0.63139800  0.91319900  0.54892700  1
  O  O20  1  0.22889800  0.23999000  0.83310800  1
  O  O21  1  0.72894800  0.25995500  0.33311200  1
  O  O22  1  0.22899700  0.73998000  0.66691300  1
  O  O23  1  0.72902400  0.76004000  0.16693800  1
  O  O24  1  0.70482300  0.25616600  0.70176800  1
  O  O25  1  0.20487900  0.24385900  0.20174200  1
  O  O26  1  0.70493200  0.75567100  0.79817000  1
  O  O27  1  0.20497900  0.74434100  0.29817800  1
