# generated using pymatgen
data_Li4V2(PO4)3
_symmetry_space_group_name_H-M   'P 1'
_cell_length_a   8.43220400
_cell_length_b   8.43731792
_cell_length_c   9.18322301
_cell_angle_alpha   63.07517437
_cell_angle_beta   63.09860658
_cell_angle_gamma   60.86730068
_symmetry_Int_Tables_number   1
_chemical_formula_structural   Li4V2(PO4)3
_chemical_formula_sum   'Li8 V4 P6 O24'
_cell_volume   485.72626672
_cell_formula_units_Z   2
loop_
 _symmetry_equiv_pos_site_id
 _symmetry_equiv_pos_as_xyz
  1  'x, y, z'
loop_
 _atom_site_type_symbol
 _atom_site_label
 _atom_site_symmetry_multiplicity
 _atom_site_fract_x
 _atom_site_fract_y
 _atom_site_fract_z
 _atom_site_occupancy
  Li  Li0  1  0.33874000  0.07914100  0.85727100  1
  Li  Li1  1  0.72799200  0.33392600  0.85936000  1
  Li  Li2  1  0.06557900  0.72811200  0.89894600  1
  Li  Li3  1  0.78873000  0.26054100  0.41180900  1
  Li  Li4  1  0.21127000  0.73945900  0.58819100  1
  Li  Li5  1  0.93442100  0.27188800  0.10105400  1
  Li  Li6  1  0.27200800  0.66607400  0.14064000  1
  Li  Li7  1  0.66126000  0.92085900  0.14272900  1
  V  V8  1  0.15057600  0.14761900  0.56063300  1
  V  V9  1  0.84942400  0.85238100  0.43936700  1
  V  V10  1  0.35019600  0.34719600  0.96004700  1
  V  V11  1  0.64980400  0.65280400  0.03995300  1
  P  P12  1  0.75570500  0.03860900  0.75663300  1
  P  P13  1  0.04460900  0.46231000  0.74467400  1
  P  P14  1  0.45665200  0.74979300  0.75059500  1
  P  P15  1  0.54334800  0.25020700  0.24940500  1
  P  P16  1  0.95539100  0.53769000  0.25532600  1
  P  P17  1  0.24429500  0.96139100  0.24336700  1
  O  O18  1  0.19961100  0.15040000  0.09597900  1
  O  O19  1  0.56431500  0.19887300  0.09636100  1
  O  O20  1  0.14281500  0.54856800  0.10602200  1
  O  O21  1  0.54372700  0.16088800  0.80425600  1
  O  O22  1  0.88108400  0.14273500  0.73164000  1
  O  O23  1  0.81195000  0.00580100  0.58424000  1
  O  O24  1  0.15266400  0.25920500  0.72337300  1
  O  O25  1  0.16454200  0.51346300  0.79495800  1
  O  O26  1  0.50320100  0.53601400  0.79848600  1
  O  O27  1  0.39285100  0.18620700  0.41077800  1
  O  O28  1  0.74507400  0.14052600  0.28154800  1
  O  O29  1  0.99048200  0.38339000  0.42075600  1
  O  O30  1  0.00951800  0.61661000  0.57924400  1
  O  O31  1  0.25492600  0.85947400  0.71845200  1
  O  O32  1  0.60714900  0.81379300  0.58922200  1
  O  O33  1  0.49679900  0.46398600  0.20151400  1
  O  O34  1  0.83545800  0.48653700  0.20504200  1
  O  O35  1  0.84733600  0.74079500  0.27662700  1
  O  O36  1  0.18805000  0.99419900  0.41576000  1
  O  O37  1  0.11891600  0.85726500  0.26836000  1
  O  O38  1  0.45627300  0.83911200  0.19574400  1
  O  O39  1  0.85718500  0.45143200  0.89397800  1
  O  O40  1  0.43568500  0.80112700  0.90363900  1
  O  O41  1  0.80038900  0.84960000  0.90402100  1
