# generated using pymatgen
data_Li5Mn8(BO3)8
_symmetry_space_group_name_H-M   'P 1'
_cell_length_a   5.28695300
_cell_length_b   5.31174003
_cell_length_c   20.26331405
_cell_angle_alpha   90.78201234
_cell_angle_beta   91.47462900
_cell_angle_gamma   118.49217820
_symmetry_Int_Tables_number   1
_chemical_formula_structural   Li5Mn8(BO3)8
_chemical_formula_sum   'Li5 Mn8 B8 O24'
_cell_volume   499.74726912
_cell_formula_units_Z   1
loop_
 _symmetry_equiv_pos_site_id
 _symmetry_equiv_pos_as_xyz
  1  'x, y, z'
loop_
 _atom_site_type_symbol
 _atom_site_label
 _atom_site_symmetry_multiplicity
 _atom_site_fract_x
 _atom_site_fract_y
 _atom_site_fract_z
 _atom_site_occupancy
  Li  Li0  1  0.88517900  0.84504000  0.66107300  1
  Li  Li1  1  0.81744900  0.86811800  0.42181100  1
  Li  Li2  1  0.83989300  0.86077600  0.91749900  1
  Li  Li3  1  0.18052400  0.16361500  0.05231500  1
  Li  Li4  1  0.12727800  0.13551900  0.28872900  1
  Mn  Mn5  1  0.80103600  0.49312200  0.30885000  1
  Mn  Mn6  1  0.83798200  0.47840500  0.81045500  1
  Mn  Mn7  1  0.48183400  0.18956400  0.43711300  1
  Mn  Mn8  1  0.50294100  0.18386700  0.93648400  1
  Mn  Mn9  1  0.53485600  0.83402500  0.06277900  1
  Mn  Mn10  1  0.47148100  0.82317600  0.56043100  1
  Mn  Mn11  1  0.17082300  0.52121500  0.18475200  1
  Mn  Mn12  1  0.20066700  0.49100000  0.68763100  1
  B  B13  1  0.85821400  0.50209300  0.06332100  1
  B  B14  1  0.84149000  0.48507200  0.56291300  1
  B  B15  1  0.49095200  0.15299600  0.18780000  1
  B  B16  1  0.51710900  0.15096500  0.68539200  1
  B  B17  1  0.47901900  0.84456100  0.31021700  1
  B  B18  1  0.50294100  0.85009400  0.81354000  1
  B  B19  1  0.13638000  0.50888600  0.43660200  1
  B  B20  1  0.17081600  0.50835100  0.93740100  1
  O  O21  1  0.90173700  0.54449200  0.41535200  1
  O  O22  1  0.93563100  0.53463400  0.90908700  1
  O  O23  1  0.75866000  0.38051800  0.20683800  1
  O  O24  1  0.88976800  0.76874600  0.05781900  1
  O  O25  1  0.76673200  0.39081100  0.71267000  1
  O  O26  1  0.60452500  0.25654500  0.04337300  1
  O  O27  1  0.62843200  0.22503400  0.53617100  1
  O  O28  1  0.44443400  0.07812000  0.33027200  1
  O  O29  1  0.79904300  0.71630200  0.56849900  1
  O  O30  1  0.50966900  0.10955300  0.83272400  1
  O  O31  1  0.73738000  0.84797300  0.31918300  1
  O  O32  1  0.73494400  0.80790800  0.82169600  1
  O  O33  1  0.24527100  0.17418000  0.19393400  1
  O  O34  1  0.25925300  0.13970100  0.68365200  1
  O  O35  1  0.48802500  0.90010800  0.16574400  1
  O  O36  1  0.55397100  0.92214000  0.65855400  1
  O  O37  1  0.38896800  0.75623800  0.46212800  1
  O  O38  1  0.13144600  0.25336900  0.43116600  1
  O  O39  1  0.42274600  0.75607800  0.95597400  1
  O  O40  1  0.23419500  0.59751800  0.28306500  1
  O  O41  1  0.14080700  0.24115100  0.94863300  1
  O  O42  1  0.24336000  0.63685400  0.78569100  1
  O  O43  1  0.09502900  0.46415200  0.08775400  1
  O  O44  1  0.10249300  0.49742000  0.58477100  1
