# generated using pymatgen
data_Li17Fe6(Si2O7)6
_symmetry_space_group_name_H-M   'P 1'
_cell_length_a   8.61155300
_cell_length_b   8.63221220
_cell_length_c   13.13406785
_cell_angle_alpha   90.40920539
_cell_angle_beta   90.14666770
_cell_angle_gamma   119.87651288
_symmetry_Int_Tables_number   1
_chemical_formula_structural   Li17Fe6(Si2O7)6
_chemical_formula_sum   'Li17 Fe6 Si12 O42'
_cell_volume   846.54617847
_cell_formula_units_Z   1
loop_
 _symmetry_equiv_pos_site_id
 _symmetry_equiv_pos_as_xyz
  1  'x, y, z'
loop_
 _atom_site_type_symbol
 _atom_site_label
 _atom_site_symmetry_multiplicity
 _atom_site_fract_x
 _atom_site_fract_y
 _atom_site_fract_z
 _atom_site_occupancy
  Li  Li0  1  0.96936900  0.30592400  0.40062700  1
  Li  Li1  1  0.97132000  0.29563700  0.06715400  1
  Li  Li2  1  0.32298500  0.02726700  0.06814300  1
  Li  Li3  1  0.66052300  0.32947900  0.71283700  1
  Li  Li4  1  0.66157500  0.32490700  0.24261500  1
  Li  Li5  1  0.00307400  0.00309200  0.94370300  1
  Li  Li6  1  0.02719700  0.99799100  0.43664900  1
  Li  Li7  1  0.31297100  0.33512100  0.90018000  1
  Li  Li8  1  0.30804200  0.33316500  0.56671800  1
  Li  Li9  1  0.69162700  0.66350900  0.40063300  1
  Li  Li10  1  0.70316100  0.67512200  0.06727100  1
  Li  Li11  1  0.32831600  0.64779200  0.72983900  1
  Li  Li12  1  0.33371400  0.66995500  0.27522800  1
  Li  Li13  1  0.66613600  0.97637000  0.90149100  1
  Li  Li14  1  0.67420900  0.97889600  0.56400400  1
  Li  Li15  1  0.02421900  0.69231700  0.56529100  1
  Li  Li16  1  0.02133300  0.68764300  0.90146900  1
  Fe  Fe17  1  0.00140400  0.00055900  0.72791700  1
  Fe  Fe18  1  0.99938100  0.99984000  0.22403500  1
  Fe  Fe19  1  0.65840200  0.32709700  0.45831400  1
  Fe  Fe20  1  0.66586900  0.33280400  0.01139800  1
  Fe  Fe21  1  0.33316100  0.66720300  0.95588800  1
  Fe  Fe22  1  0.33170300  0.66779800  0.51170900  1
  Si  Si23  1  0.35156600  0.02418600  0.84770700  1
  Si  Si24  1  0.35520300  0.02808500  0.62060800  1
  Si  Si25  1  0.97735000  0.32946700  0.62380200  1
  Si  Si26  1  0.97128400  0.32485300  0.84660600  1
  Si  Si27  1  0.32485600  0.35029700  0.34320000  1
  Si  Si28  1  0.33034800  0.36467000  0.12190800  1
  Si  Si29  1  0.67366200  0.64671100  0.84620600  1
  Si  Si30  1  0.67275500  0.64934100  0.62237000  1
  Si  Si31  1  0.02128700  0.66655300  0.34517800  1
  Si  Si32  1  0.64515800  0.97109400  0.34528800  1
  Si  Si33  1  0.03187300  0.66935800  0.12311200  1
  Si  Si34  1  0.63670100  0.96742500  0.12290700  1
  O  O35  1  0.86292700  0.06331900  0.33903300  1
  O  O36  1  0.85579900  0.06029000  0.12828200  1
  O  O37  1  0.58910800  0.12394100  0.36195500  1
  O  O38  1  0.57429800  0.11625400  0.10620700  1
  O  O39  1  0.81308800  0.24239500  0.93327100  1
  O  O40  1  0.81825400  0.25016800  0.53750700  1
  O  O41  1  0.43543000  0.12159300  0.73681700  1
  O  O42  1  0.86827600  0.30442400  0.73459600  1
  O  O43  1  0.42829500  0.18602300  0.93376400  1
  O  O44  1  0.44908700  0.20771700  0.55112900  1
  O  O45  1  0.87088800  0.45657500  0.35724800  1
  O  O46  1  0.88337300  0.45865000  0.10531000  1
  O  O47  1  0.19933900  0.14619300  0.12225900  1
  O  O48  1  0.19671200  0.13617400  0.32866700  1
  O  O49  1  0.53509000  0.41499400  0.36059900  1
  O  O50  1  0.54152900  0.42554000  0.10631800  1
  O  O51  1  0.06896200  0.20226600  0.84251500  1
  O  O52  1  0.07500600  0.20996200  0.63170400  1
  O  O53  1  0.75466900  0.56820200  0.93308200  1
  O  O54  1  0.75396500  0.57118700  0.53668600  1
  O  O55  1  0.69444400  0.56452100  0.73391100  1
  O  O56  1  0.30938300  0.44477800  0.23417900  1
  O  O57  1  0.24214300  0.42619200  0.42992700  1
  O  O58  1  0.24274300  0.43485900  0.03422500  1
  O  O59  1  0.94037200  0.79634000  0.12884600  1
  O  O60  1  0.93123200  0.79308200  0.33865000  1
  O  O61  1  0.46089400  0.57819100  0.85857200  1
  O  O62  1  0.46096000  0.58298000  0.60617300  1
  O  O63  1  0.79807300  0.86559900  0.84412300  1
  O  O64  1  0.79140000  0.86556000  0.63251900  1
  O  O65  1  0.11581800  0.53688000  0.86034200  1
  O  O66  1  0.12240800  0.54053500  0.61088900  1
  O  O67  1  0.56330700  0.80715100  0.42672600  1
  O  O68  1  0.56723500  0.80834300  0.03566100  1
  O  O69  1  0.55734100  0.86795000  0.23380500  1
  O  O70  1  0.13055600  0.68744900  0.23568100  1
  O  O71  1  0.17473000  0.73050500  0.43324500  1
  O  O72  1  0.18843900  0.75712600  0.03651400  1
  O  O73  1  0.42045400  0.88079100  0.86367500  1
  O  O74  1  0.42416900  0.88608900  0.60052800  1
  O  O75  1  0.13801900  0.93188800  0.62588600  1
  O  O76  1  0.13212800  0.92894900  0.84172800  1
