# generated using pymatgen
data_Li5Fe3(BO3)4
_symmetry_space_group_name_H-M   'P 1'
_cell_length_a   8.98109600
_cell_length_b   5.24550600
_cell_length_c   11.23094356
_cell_angle_alpha   63.84916191
_cell_angle_beta   90.00000000
_cell_angle_gamma   90.00000000
_symmetry_Int_Tables_number   1
_chemical_formula_structural   Li5Fe3(BO3)4
_chemical_formula_sum   'Li10 Fe6 B8 O24'
_cell_volume   474.93442849
_cell_formula_units_Z   2
loop_
 _symmetry_equiv_pos_site_id
 _symmetry_equiv_pos_as_xyz
  1  'x, y, z'
loop_
 _atom_site_type_symbol
 _atom_site_label
 _atom_site_symmetry_multiplicity
 _atom_site_fract_x
 _atom_site_fract_y
 _atom_site_fract_z
 _atom_site_occupancy
  Li  Li0  1  0.23292700  0.50136200  0.33817100  1
  Li  Li1  1  0.91454700  0.45698900  0.38394500  1
  Li  Li2  1  0.23888500  0.91517600  0.90481900  1
  Li  Li3  1  0.40646900  0.54975200  0.11343100  1
  Li  Li4  1  0.74008800  0.06675600  0.61220000  1
  Li  Li5  1  0.76707300  0.50136200  0.83817100  1
  Li  Li6  1  0.76111500  0.91517600  0.40481900  1
  Li  Li7  1  0.08545300  0.45698900  0.88394500  1
  Li  Li8  1  0.25991200  0.06675600  0.11220000  1
  Li  Li9  1  0.59353100  0.54975200  0.61343100  1
  Fe  Fe10  1  0.57266700  0.97698400  0.87042200  1
  Fe  Fe11  1  0.72320400  0.48754700  0.16743600  1
  Fe  Fe12  1  0.07135600  0.03250100  0.62336300  1
  Fe  Fe13  1  0.42733300  0.97698400  0.37042200  1
  Fe  Fe14  1  0.92864400  0.03250100  0.12336300  1
  Fe  Fe15  1  0.27679600  0.48754700  0.66743600  1
  B  B16  1  0.57490900  0.45723100  0.37923800  1
  B  B17  1  0.91598700  0.96339100  0.87113300  1
  B  B18  1  0.07787400  0.55031600  0.11995100  1
  B  B19  1  0.41716500  0.03025600  0.62771100  1
  B  B20  1  0.08401300  0.96339100  0.37113300  1
  B  B21  1  0.42509100  0.45723100  0.87923800  1
  B  B22  1  0.58283500  0.03025600  0.12771100  1
  B  B23  1  0.92212600  0.55031600  0.61995100  1
  O  O24  1  0.57999400  0.80743100  0.09273500  1
  O  O25  1  0.91690900  0.31836500  0.59068400  1
  O  O26  1  0.20257300  0.70106900  0.11750900  1
  O  O27  1  0.54163600  0.14545900  0.65435100  1
  O  O28  1  0.93937900  0.62998600  0.15242900  1
  O  O29  1  0.27569900  0.13980000  0.63761000  1
  O  O30  1  0.43694800  0.37711200  0.35149200  1
  O  O31  1  0.78540800  0.83781400  0.86437600  1
  O  O32  1  0.04837400  0.89165400  0.82497000  1
  O  O33  1  0.70548800  0.31227800  0.37079000  1
  O  O34  1  0.07683600  0.16632700  0.42224100  1
  O  O35  1  0.40903800  0.68444400  0.90899400  1
  O  O36  1  0.08309100  0.31836500  0.09068400  1
  O  O37  1  0.42000600  0.80743100  0.59273500  1
  O  O38  1  0.79742700  0.70106900  0.61750900  1
  O  O39  1  0.45836400  0.14545900  0.15435100  1
  O  O40  1  0.72430100  0.13980000  0.13761000  1
  O  O41  1  0.06062100  0.62998600  0.65242900  1
  O  O42  1  0.21459200  0.83781400  0.36437600  1
  O  O43  1  0.56305200  0.37711200  0.85149200  1
  O  O44  1  0.95162600  0.89165400  0.32497000  1
  O  O45  1  0.29451200  0.31227800  0.87079000  1
  O  O46  1  0.59096200  0.68444400  0.40899400  1
  O  O47  1  0.92316400  0.16632700  0.92224100  1
