# generated using pymatgen
data_Li32Mn3Cr13O48
_symmetry_space_group_name_H-M   'P 1'
_cell_length_a   5.01981900
_cell_length_b   8.72539369
_cell_length_c   19.47471164
_cell_angle_alpha   97.89058642
_cell_angle_beta   94.72778812
_cell_angle_gamma   89.36450859
_symmetry_Int_Tables_number   1
_chemical_formula_structural   Li32Mn3Cr13O48
_chemical_formula_sum   'Li32 Mn3 Cr13 O48'
_cell_volume   842.03946150
_cell_formula_units_Z   1
loop_
 _symmetry_equiv_pos_site_id
 _symmetry_equiv_pos_as_xyz
  1  'x, y, z'
loop_
 _atom_site_type_symbol
 _atom_site_label
 _atom_site_symmetry_multiplicity
 _atom_site_fract_x
 _atom_site_fract_y
 _atom_site_fract_z
 _atom_site_occupancy
  Li  Li0  1  0.98950600  0.16781700  0.24946400  1
  Li  Li1  1  0.87323300  0.37433500  0.37500900  1
  Li  Li2  1  0.75132700  0.24919200  0.99953800  1
  Li  Li3  1  0.74075500  0.92088800  0.00026600  1
  Li  Li4  1  0.99141700  0.16780800  0.74929000  1
  Li  Li5  1  0.75543700  0.57919500  0.49970200  1
  Li  Li6  1  0.87435500  0.37464000  0.87488600  1
  Li  Li7  1  0.75341200  0.25019300  0.50004800  1
  Li  Li8  1  0.73961000  0.92006700  0.50008900  1
  Li  Li9  1  0.62323500  0.12395900  0.12508300  1
  Li  Li10  1  0.75437400  0.57891500  0.99980900  1
  Li  Li11  1  0.50838600  0.33084400  0.25040200  1
  Li  Li12  1  0.62303100  0.12396500  0.62504100  1
  Li  Li13  1  0.49887700  0.00045200  0.24983500  1
  Li  Li14  1  0.48996700  0.66950600  0.25012600  1
  Li  Li15  1  0.50553500  0.33099600  0.75019800  1
  Li  Li16  1  0.37460000  0.87502200  0.37493200  1
  Li  Li17  1  0.50073300  0.00053100  0.74983300  1
  Li  Li18  1  0.25080900  0.74998100  0.00007100  1
  Li  Li19  1  0.49061300  0.66876200  0.75010900  1
  Li  Li20  1  0.24438000  0.42053800  0.99985600  1
  Li  Li21  1  0.37476800  0.87522300  0.87505500  1
  Li  Li22  1  0.25905000  0.07996000  0.50005000  1
  Li  Li23  1  0.25004900  0.75080100  0.49996300  1
  Li  Li24  1  0.12672300  0.62602000  0.12488600  1
  Li  Li25  1  0.24403600  0.42019700  0.50030200  1
  Li  Li26  1  0.01088600  0.83216200  0.25037100  1
  Li  Li27  1  0.25955400  0.07931800  0.99961000  1
  Li  Li28  1  0.12466900  0.62462600  0.62478800  1
  Li  Li29  1  0.00182900  0.50064900  0.25046200  1
  Li  Li30  1  0.01059300  0.83152300  0.75019000  1
  Li  Li31  1  0.00251000  0.50033300  0.75005800  1
  Mn  Mn32  1  0.37555800  0.54145300  0.37494500  1
  Mn  Mn33  1  0.37414900  0.54132900  0.87451900  1
  Mn  Mn34  1  0.12619100  0.29181100  0.62516700  1
  Cr  Cr35  1  0.86739600  0.70646200  0.37448100  1
  Cr  Cr36  1  0.88082200  0.03892300  0.37520500  1
  Cr  Cr37  1  0.86559200  0.70732700  0.87453400  1
  Cr  Cr38  1  0.88276400  0.03933300  0.87564000  1
  Cr  Cr39  1  0.63002500  0.78846800  0.12466800  1
  Cr  Cr40  1  0.62264700  0.45289100  0.12406300  1
  Cr  Cr41  1  0.62974500  0.78842400  0.62513100  1
  Cr  Cr42  1  0.61926900  0.45524700  0.62448800  1
  Cr  Cr43  1  0.37185400  0.21205300  0.37536000  1
  Cr  Cr44  1  0.37387600  0.21245900  0.87544300  1
  Cr  Cr45  1  0.11970900  0.96135300  0.12526100  1
  Cr  Cr46  1  0.12877200  0.29713700  0.12599700  1
  Cr  Cr47  1  0.12095900  0.96182400  0.62533900  1
  O  O48  1  0.96858400  0.10597300  0.06950800  1
  O  O49  1  0.91983400  0.78407900  0.06858700  1
  O  O50  1  0.93415200  0.42296700  0.06712300  1
  O  O51  1  0.96582400  0.10790300  0.56941800  1
  O  O52  1  0.82964300  0.96608500  0.18121800  1
  O  O53  1  0.81626700  0.32677700  0.18286900  1
  O  O54  1  0.91960600  0.78597700  0.56858900  1
  O  O55  1  0.93199900  0.42726100  0.56778200  1
  O  O56  1  0.78172500  0.64372600  0.18034600  1
  O  O57  1  0.71802900  0.85255100  0.31857600  1
  O  O58  1  0.83067300  0.96496600  0.68137600  1
  O  O59  1  0.82393700  0.32367800  0.68190500  1
  O  O60  1  0.67563700  0.53376100  0.31867200  1
  O  O61  1  0.67349900  0.17658700  0.31782800  1
  O  O62  1  0.78210900  0.64358800  0.68096700  1
  O  O63  1  0.71907900  0.85214700  0.81872900  1
  O  O64  1  0.46351700  0.60276700  0.06876800  1
  O  O65  1  0.56899800  0.71374300  0.43045000  1
  O  O66  1  0.57515800  0.07378400  0.43224300  1
  O  O67  1  0.67423800  0.53260100  0.81858800  1
  O  O68  1  0.67325900  0.17565000  0.81816900  1
  O  O69  1  0.42711900  0.92693500  0.06790900  1
  O  O70  1  0.43788200  0.28773000  0.06889300  1
  O  O71  1  0.53912500  0.39658600  0.43135300  1
  O  O72  1  0.46768200  0.60287900  0.56882000  1
  O  O73  1  0.57058000  0.71326700  0.93041400  1
  O  O74  1  0.57570300  0.07252100  0.93247200  1
  O  O75  1  0.32349900  0.82349100  0.18196000  1
  O  O76  1  0.31274000  0.46270100  0.18127100  1
  O  O77  1  0.42401200  0.92728500  0.56770900  1
  O  O78  1  0.42767700  0.28484700  0.56922600  1
  O  O79  1  0.53815400  0.39568800  0.93113800  1
  O  O80  1  0.28522100  0.14739200  0.18132600  1
  O  O81  1  0.21472700  0.35803400  0.31946900  1
  O  O82  1  0.32539200  0.82431000  0.68219500  1
  O  O83  1  0.31748200  0.46368400  0.68084400  1
  O  O84  1  0.18055100  0.67774600  0.31779700  1
  O  O85  1  0.16987200  0.03578600  0.31866300  1
  O  O86  1  0.28939100  0.14652400  0.68155100  1
  O  O87  1  0.21361700  0.35860400  0.81944200  1
  O  O88  1  0.07377000  0.57384500  0.43168900  1
  O  O89  1  0.08088200  0.21472600  0.43126700  1
  O  O90  1  0.17988100  0.67809800  0.81802400  1
  O  O91  1  0.17131500  0.03630900  0.81907600  1
  O  O92  1  0.03197700  0.89480200  0.43126300  1
  O  O93  1  0.07348500  0.57376800  0.93167500  1
  O  O94  1  0.08155300  0.21517300  0.93168500  1
  O  O95  1  0.03335300  0.89579100  0.93159800  1
