# generated using pymatgen
data_Li4V3P8O29
_symmetry_space_group_name_H-M   'P 1'
_cell_length_a   9.76057800
_cell_length_b   9.76874287
_cell_length_c   14.13992845
_cell_angle_alpha   89.77156536
_cell_angle_beta   90.74728106
_cell_angle_gamma   119.83614792
_symmetry_Int_Tables_number   1
_chemical_formula_structural   Li4V3P8O29
_chemical_formula_sum   'Li8 V6 P16 O58'
_cell_volume   1169.41323084
_cell_formula_units_Z   2
loop_
 _symmetry_equiv_pos_site_id
 _symmetry_equiv_pos_as_xyz
  1  'x, y, z'
loop_
 _atom_site_type_symbol
 _atom_site_label
 _atom_site_symmetry_multiplicity
 _atom_site_fract_x
 _atom_site_fract_y
 _atom_site_fract_z
 _atom_site_occupancy
  Li  Li0  1  0.09100900  0.32516400  0.44466900  1
  Li  Li1  1  0.22949800  0.31951400  0.93815000  1
  Li  Li2  1  0.68182000  0.90581600  0.93938800  1
  Li  Li3  1  0.33240000  0.23286800  0.56071000  1
  Li  Li4  1  0.66660600  0.76626200  0.44225600  1
  Li  Li5  1  0.31217300  0.08281900  0.06322600  1
  Li  Li6  1  0.90864500  0.22386700  0.05612100  1
  Li  Li7  1  0.98247100  0.94793700  0.50867600  1
  V  V8  1  0.43657600  0.43516300  0.75208400  1
  V  V9  1  0.56967900  0.56957100  0.24536500  1
  V  V10  1  0.42959000  0.99581800  0.25536300  1
  V  V11  1  0.56658300  0.00592300  0.74436500  1
  V  V12  1  0.00018100  0.56998300  0.74886200  1
  V  V13  1  0.00046000  0.44230400  0.25387500  1
  P  P14  1  0.08180800  0.77253600  0.15556300  1
  P  P15  1  0.21871500  0.91635400  0.66307400  1
  P  P16  1  0.08707000  0.31383400  0.65798300  1
  P  P17  1  0.33441200  0.66860100  0.86864300  1
  P  P18  1  0.33645400  0.66374600  0.36929100  1
  P  P19  1  0.22683800  0.32001000  0.15865300  1
  P  P20  1  0.31759500  0.23139400  0.34030600  1
  P  P21  1  0.68003400  0.91551200  0.15706400  1
  P  P22  1  0.32044400  0.08790800  0.84675500  1
  P  P23  1  0.68451600  0.77279100  0.65689200  1
  P  P24  1  0.77653400  0.68751200  0.83837100  1
  P  P25  1  0.66728100  0.33483800  0.62906400  1
  P  P26  1  0.66243200  0.32893200  0.13201600  1
  P  P27  1  0.91730200  0.69858900  0.34190700  1
  P  P28  1  0.77900500  0.08615800  0.33978400  1
  P  P29  1  0.91276700  0.22992000  0.83931600  1
  O  O30  1  0.99395800  0.79174300  0.42799900  1
  O  O31  1  0.08346300  0.74291700  0.66406800  1
  O  O32  1  0.25688900  0.00964100  0.93848800  1
  O  O33  1  0.25092200  0.91607600  0.16268100  1
  O  O34  1  0.09205400  0.61919400  0.18277000  1
  O  O35  1  0.18410200  0.66299400  0.82021800  1
  O  O36  1  0.08645400  0.47000600  0.67242500  1
  O  O37  1  0.00118900  0.23820400  0.92915400  1
  O  O38  1  0.07919600  0.33968500  0.15910900  1
  O  O39  1  0.32435000  0.80311300  0.32728000  1
  O  O40  1  0.38059300  0.92042900  0.66951700  1
  O  O41  1  0.18665800  0.50622900  0.32780900  1
  O  O42  1  0.33214300  0.66892600  0.97380600  1
  O  O43  1  0.33962700  0.65033700  0.47420500  1
  O  O44  1  0.33085000  0.51503300  0.83136200  1
  O  O45  1  0.52138700  0.90651500  0.17733000  1
  O  O46  1  0.48120900  0.81847600  0.82662600  1
  O  O47  1  0.25800800  0.34106700  0.66561200  1
  O  O48  1  0.20639800  0.21029100  0.24888100  1
  O  O49  1  0.23451500  0.23223400  0.42907300  1
  O  O50  1  0.23956900  0.24371500  0.06988000  1
  O  O51  1  0.37891500  0.48098700  0.17724200  1
  O  O52  1  0.49029800  0.67170900  0.32700200  1
  O  O53  1  0.33720500  0.25419400  0.84046100  1
  O  O54  1  0.53023100  0.61844000  0.66822100  1
  O  O55  1  0.65437200  0.91423800  0.67177400  1
  O  O56  1  0.20128100  0.98943900  0.76099200  1
  O  O57  1  0.20272100  0.00673000  0.58216400  1
  O  O58  1  0.79699700  0.99327200  0.41845800  1
  O  O59  1  0.34465800  0.08943000  0.33553500  1
  O  O60  1  0.47375600  0.38676700  0.32497200  1
  O  O61  1  0.65779500  0.74659000  0.16500000  1
  O  O62  1  0.51278900  0.32453100  0.66604100  1
  O  O63  1  0.62228200  0.52615400  0.82180400  1
  O  O64  1  0.76824200  0.77367800  0.92175400  1
  O  O65  1  0.76901200  0.79347100  0.56567800  1
  O  O66  1  0.80061700  0.78956300  0.74277100  1
  O  O67  1  0.74108300  0.65894700  0.33535900  1
  O  O68  1  0.51305100  0.18320300  0.17132600  1
  O  O69  1  0.47975700  0.09891200  0.82023000  1
  O  O70  1  0.66133800  0.47845400  0.17709000  1
  O  O71  1  0.66699200  0.33293100  0.02709200  1
  O  O72  1  0.67116000  0.32717600  0.52437600  1
  O  O73  1  0.81291100  0.48214100  0.67556300  1
  O  O74  1  0.62285500  0.08575500  0.33170000  1
  O  O75  1  0.67215100  0.18695200  0.67610600  1
  O  O76  1  0.91823600  0.65813800  0.83454200  1
  O  O77  1  0.99666000  0.79534200  0.24779300  1
  O  O78  1  0.99292300  0.75284000  0.06739800  1
  O  O79  1  0.91968600  0.53900400  0.33079000  1
  O  O80  1  0.81501100  0.33320100  0.17708500  1
  O  O81  1  0.90631300  0.38231100  0.82221700  1
  O  O82  1  0.74467400  0.08360600  0.83957800  1
  O  O83  1  0.75146100  0.99617300  0.06547400  1
  O  O84  1  0.80133800  0.01483700  0.24034800  1
  O  O85  1  0.92082600  0.25982700  0.33885900  1
  O  O86  1  0.01202400  0.22904300  0.56780600  1
  O  O87  1  0.99883700  0.20584200  0.74942400  1
