# generated using pymatgen
data_Li3Nb2CrO6
_symmetry_space_group_name_H-M   'P 1'
_cell_length_a   5.83341941
_cell_length_b   6.82327763
_cell_length_c   13.67791704
_cell_angle_alpha   75.95046782
_cell_angle_beta   77.70461221
_cell_angle_gamma   64.66431978
_symmetry_Int_Tables_number   1
_chemical_formula_structural   Li3Nb2CrO6
_chemical_formula_sum   'Li12 Nb8 Cr4 O24'
_cell_volume   473.63098572
_cell_formula_units_Z   4
loop_
 _symmetry_equiv_pos_site_id
 _symmetry_equiv_pos_as_xyz
  1  'x, y, z'
loop_
 _atom_site_type_symbol
 _atom_site_label
 _atom_site_symmetry_multiplicity
 _atom_site_fract_x
 _atom_site_fract_y
 _atom_site_fract_z
 _atom_site_occupancy
  Li  Li0  1  0.08333100  0.16669400  0.66666900  1
  Li  Li1  1  0.58333800  0.16667800  0.66667000  1
  Li  Li2  1  0.33335900  0.66664000  0.16666800  1
  Li  Li3  1  0.83335600  0.66665400  0.16666800  1
  Li  Li4  1  0.25170500  0.48292500  0.01358400  1
  Li  Li5  1  0.75171600  0.48294800  0.01356700  1
  Li  Li6  1  0.50173700  0.98293200  0.51357500  1
  Li  Li7  1  0.00170300  0.98292700  0.51357400  1
  Li  Li8  1  0.41495900  0.85042600  0.31976400  1
  Li  Li9  1  0.91495000  0.85040500  0.31977400  1
  Li  Li10  1  0.66494600  0.35040800  0.81976800  1
  Li  Li11  1  0.16498100  0.35041100  0.81976700  1
  Nb  Nb12  1  0.01105800  0.98788500  0.98993100  1
  Nb  Nb13  1  0.51102900  0.98789700  0.98994100  1
  Nb  Nb14  1  0.26104500  0.48790500  0.48995500  1
  Nb  Nb15  1  0.76103800  0.48791000  0.48995400  1
  Nb  Nb16  1  0.65562100  0.34543100  0.34337800  1
  Nb  Nb17  1  0.15564300  0.34542200  0.34336500  1
  Nb  Nb18  1  0.90562400  0.84546000  0.84338400  1
  Nb  Nb19  1  0.40563200  0.84544300  0.84339400  1
  Cr  Cr20  1  0.83336700  0.66667400  0.66669700  1
  Cr  Cr21  1  0.58322200  0.16675300  0.16670300  1
  Cr  Cr22  1  0.33329500  0.66663000  0.66665300  1
  Cr  Cr23  1  0.08325900  0.16663100  0.16662700  1
  O  O24  1  0.87714900  0.73441100  0.51140200  1
  O  O25  1  0.37713900  0.73442600  0.51138500  1
  O  O26  1  0.12700500  0.23442700  0.01136500  1
  O  O27  1  0.62711300  0.23443400  0.01138100  1
  O  O28  1  0.28965000  0.59891600  0.82194900  1
  O  O29  1  0.78967500  0.59889500  0.82199200  1
  O  O30  1  0.53960500  0.09892600  0.32193600  1
  O  O31  1  0.03951100  0.09891000  0.32193900  1
  O  O32  1  0.03300500  0.11139300  0.82307800  1
  O  O33  1  0.53296100  0.11141000  0.82309000  1
  O  O34  1  0.28299500  0.61139100  0.32307800  1
  O  O35  1  0.78295500  0.61141300  0.32308900  1
  O  O36  1  0.63367200  0.22194700  0.51025700  1
  O  O37  1  0.13371800  0.22191900  0.51023500  1
  O  O38  1  0.88368900  0.72195100  0.01020100  1
  O  O39  1  0.38366300  0.72195200  0.01025300  1
  O  O40  1  0.21579300  0.39117700  0.17691400  1
  O  O41  1  0.71578800  0.39122500  0.17690700  1
  O  O42  1  0.46581700  0.89128700  0.67692500  1
  O  O43  1  0.96579900  0.89127100  0.67692300  1
  O  O44  1  0.45083100  0.94204600  0.15641000  1
  O  O45  1  0.95084600  0.94198000  0.15641100  1
  O  O46  1  0.70084600  0.44209300  0.65642400  1
  O  O47  1  0.20085300  0.44211200  0.65642600  1
