# generated using pymatgen
data_KBaLiZnF6
_symmetry_space_group_name_H-M   'P 1'
_cell_length_a   24.02988891
_cell_length_b   24.02988891
_cell_length_c   24.02988862
_cell_angle_alpha   13.86722520
_cell_angle_beta   13.86722520
_cell_angle_gamma   13.86722309
_symmetry_Int_Tables_number   1
_chemical_formula_structural   KBaLiZnF6
_chemical_formula_sum   'K5 Ba5 Li5 Zn5 F30'
_cell_volume   693.64589134
_cell_formula_units_Z   5
loop_
 _symmetry_equiv_pos_site_id
 _symmetry_equiv_pos_as_xyz
  1  'x, y, z'
loop_
 _atom_site_type_symbol
 _atom_site_label
 _atom_site_symmetry_multiplicity
 _atom_site_fract_x
 _atom_site_fract_y
 _atom_site_fract_z
 _atom_site_occupancy
  K  K0  1  0.29832400  0.29832400  0.29832400  1
  K  K1  1  0.59949100  0.59949100  0.59949100  1
  K  K2  1  0.19939000  0.19939000  0.19939000  1
  K  K3  1  0.10022400  0.10022400  0.10022400  1
  K  K4  1  0.70017100  0.70017100  0.70017100  1
  Ba  Ba5  1  0.00115400  0.00115400  0.00115400  1
  Ba  Ba6  1  0.89989300  0.89989300  0.89989300  1
  Ba  Ba7  1  0.50164900  0.50164900  0.50164900  1
  Ba  Ba8  1  0.80115000  0.80115000  0.80115000  1
  Ba  Ba9  1  0.40009600  0.40009600  0.40009600  1
  Li  Li10  1  0.25060600  0.25060600  0.25060600  1
  Li  Li11  1  0.84966700  0.84966700  0.84966700  1
  Li  Li12  1  0.15143800  0.15143800  0.15143800  1
  Li  Li13  1  0.75025300  0.75025300  0.75025300  1
  Li  Li14  1  0.34996300  0.34996300  0.34996300  1
  Zn  Zn15  1  0.65032700  0.65032700  0.65032700  1
  Zn  Zn16  1  0.94901800  0.94901800  0.94901800  1
  Zn  Zn17  1  0.44948700  0.44948700  0.44948700  1
  Zn  Zn18  1  0.55026900  0.55026900  0.55026900  1
  Zn  Zn19  1  0.05007700  0.05007700  0.05007700  1
  F  F20  1  0.99977800  0.50020900  0.50020900  1
  F  F21  1  0.80620900  0.29068800  0.80620900  1
  F  F22  1  0.50020900  0.50020900  0.99977800  1
  F  F23  1  0.80620900  0.80620900  0.29068800  1
  F  F24  1  0.29068800  0.80620900  0.80620900  1
  F  F25  1  0.50020900  0.99977800  0.50020900  1
  F  F26  1  0.60633900  0.09618100  0.09618100  1
  F  F27  1  0.39994200  0.90023400  0.39994200  1
  F  F28  1  0.09618100  0.09618100  0.60633900  1
  F  F29  1  0.39994200  0.39994200  0.90023400  1
  F  F30  1  0.90023400  0.39994200  0.39994200  1
  F  F31  1  0.09618100  0.60633900  0.09618100  1
  F  F32  1  0.20099000  0.69956800  0.69956800  1
  F  F33  1  0.99519700  0.50627500  0.99519700  1
  F  F34  1  0.69956800  0.69956800  0.20099000  1
  F  F35  1  0.99519700  0.99519700  0.50627500  1
  F  F36  1  0.69956800  0.20099000  0.69956800  1
  F  F37  1  0.50627500  0.99519700  0.99519700  1
  F  F38  1  0.59912400  0.10108300  0.59912400  1
  F  F39  1  0.79334100  0.30391100  0.30391100  1
  F  F40  1  0.30391100  0.30391100  0.79334100  1
  F  F41  1  0.59912400  0.59912400  0.10108300  1
  F  F42  1  0.10108300  0.59912400  0.59912400  1
  F  F43  1  0.30391100  0.79334100  0.30391100  1
  F  F44  1  0.40090500  0.89956600  0.89956600  1
  F  F45  1  0.20003600  0.70007800  0.20003600  1
  F  F46  1  0.20003600  0.20003600  0.70007800  1
  F  F47  1  0.89956600  0.89956600  0.40090500  1
  F  F48  1  0.70007800  0.20003600  0.20003600  1
  F  F49  1  0.89956600  0.40090500  0.89956600  1
