# generated using pymatgen
data_Li8SbS6
_symmetry_space_group_name_H-M   'P 1'
_cell_length_a   7.06660659
_cell_length_b   7.06660659
_cell_length_c   13.46171700
_cell_angle_alpha   90.00000000
_cell_angle_beta   90.00000000
_cell_angle_gamma   120.00000556
_symmetry_Int_Tables_number   1
_chemical_formula_structural   Li8SbS6
_chemical_formula_sum   'Li16 Sb2 S12'
_cell_volume   582.17411587
_cell_formula_units_Z   2
loop_
 _symmetry_equiv_pos_site_id
 _symmetry_equiv_pos_as_xyz
  1  'x, y, z'
loop_
 _atom_site_type_symbol
 _atom_site_label
 _atom_site_symmetry_multiplicity
 _atom_site_fract_x
 _atom_site_fract_y
 _atom_site_fract_z
 _atom_site_occupancy
  Li  Li0  1  0.00000000  0.67566000  0.76546100  1
  Li  Li1  1  0.00000000  0.61369400  0.13241200  1
  Li  Li2  1  0.00000000  0.38630600  0.63241200  1
  Li  Li3  1  0.00000000  0.32434000  0.26546100  1
  Li  Li4  1  0.33333300  0.66666700  0.39735100  1
  Li  Li5  1  0.33333300  0.66666700  0.89735100  1
  Li  Li6  1  0.32434000  0.32434000  0.76546100  1
  Li  Li7  1  0.38630600  0.38630600  0.13241200  1
  Li  Li8  1  0.61369400  0.61369400  0.63241200  1
  Li  Li9  1  0.32434000  0.00000000  0.26546100  1
  Li  Li10  1  0.67566000  0.67566000  0.26546100  1
  Li  Li11  1  0.38630600  0.00000000  0.63241200  1
  Li  Li12  1  0.66666700  0.33333300  0.89735100  1
  Li  Li13  1  0.66666700  0.33333300  0.39735100  1
  Li  Li14  1  0.61369400  0.00000000  0.13241200  1
  Li  Li15  1  0.67566000  0.00000000  0.76546100  1
  Sb  Sb16  1  0.00000000  0.00000000  0.99373700  1
  Sb  Sb17  1  0.00000000  0.00000000  0.49373700  1
  S  S18  1  0.00000000  0.65753400  0.95049600  1
  S  S19  1  0.00000000  0.34246600  0.45049600  1
  S  S20  1  0.33333300  0.66666700  0.21449500  1
  S  S21  1  0.00000000  0.00000000  0.18317100  1
  S  S22  1  0.00000000  0.00000000  0.68317100  1
  S  S23  1  0.33333300  0.66666700  0.71449500  1
  S  S24  1  0.34246600  0.34246600  0.95049600  1
  S  S25  1  0.34246600  0.00000000  0.45049600  1
  S  S26  1  0.65753400  0.65753400  0.45049600  1
  S  S27  1  0.66666700  0.33333300  0.71449500  1
  S  S28  1  0.66666700  0.33333300  0.21449500  1
  S  S29  1  0.65753400  0.00000000  0.95049600  1
