# generated using pymatgen
data_Li4V3P8O29
_symmetry_space_group_name_H-M   'P 1'
_cell_length_a   9.76271700
_cell_length_b   9.77219961
_cell_length_c   14.10927208
_cell_angle_alpha   89.92652145
_cell_angle_beta   90.17965680
_cell_angle_gamma   119.83618981
_symmetry_Int_Tables_number   1
_chemical_formula_structural   Li4V3P8O29
_chemical_formula_sum   'Li8 V6 P16 O58'
_cell_volume   1167.64445506
_cell_formula_units_Z   2
loop_
 _symmetry_equiv_pos_site_id
 _symmetry_equiv_pos_as_xyz
  1  'x, y, z'
loop_
 _atom_site_type_symbol
 _atom_site_label
 _atom_site_symmetry_multiplicity
 _atom_site_fract_x
 _atom_site_fract_y
 _atom_site_fract_z
 _atom_site_occupancy
  Li  Li0  1  0.90345500  0.67509700  0.05965700  1
  Li  Li1  1  0.77487200  0.08786100  0.05769400  1
  Li  Li2  1  0.31283500  0.22751900  0.06215900  1
  Li  Li3  1  0.66985500  0.90201100  0.43954700  1
  Li  Li4  1  0.32799400  0.09233100  0.55591200  1
  Li  Li5  1  0.22355500  0.91033400  0.94500300  1
  Li  Li6  1  0.23466600  0.33470200  0.43992000  1
  Li  Li7  1  0.97706800  0.94951800  0.49580300  1
  V  V8  1  0.56874200  0.00057700  0.25006300  1
  V  V9  1  0.43755900  0.00020000  0.74880500  1
  V  V10  1  0.56985000  0.56591400  0.75219800  1
  V  V11  1  0.43450200  0.43692700  0.24769400  1
  V  V12  1  0.00317100  0.56633500  0.25751600  1
  V  V13  1  0.99929300  0.43391600  0.74520800  1
  P  P14  1  0.91479300  0.68331300  0.84126700  1
  P  P15  1  0.77474200  0.69157000  0.34066600  1
  P  P16  1  0.91854400  0.22405500  0.34264000  1
  P  P17  1  0.66986600  0.33501600  0.13097400  1
  P  P18  1  0.66322700  0.33251400  0.63069100  1
  P  P19  1  0.77570700  0.09231600  0.83973000  1
  P  P20  1  0.68768800  0.90948800  0.65927300  1
  P  P21  1  0.31841100  0.22812200  0.84401900  1
  P  P22  1  0.68499200  0.77044600  0.15597500  1
  P  P23  1  0.31647900  0.09018800  0.34206500  1
  P  P24  1  0.22911800  0.90947100  0.16186100  1
  P  P25  1  0.33519700  0.66630200  0.37230500  1
  P  P26  1  0.33168000  0.66606300  0.86728100  1
  P  P27  1  0.08506200  0.77935900  0.65705900  1
  P  P28  1  0.22895000  0.31427500  0.66105200  1
  P  P29  1  0.08316700  0.31601600  0.15650300  1
  O  O30  1  0.00476900  0.80146400  0.57447500  1
  O  O31  1  0.91498800  0.65805000  0.33366300  1
  O  O32  1  0.76492500  0.75798300  0.07040900  1
  O  O33  1  0.74569000  0.65851800  0.83545700  1
  O  O34  1  0.90682200  0.52403700  0.82088700  1
  O  O35  1  0.81670900  0.48437000  0.17639900  1
  O  O36  1  0.91672100  0.38248600  0.33099500  1
  O  O37  1  0.99160300  0.23666600  0.07034300  1
  O  O38  1  0.91801400  0.26088100  0.82983800  1
  O  O39  1  0.66577100  0.48014100  0.67700100  1
  O  O40  1  0.61801900  0.53746200  0.33204100  1
  O  O41  1  0.81093200  0.33061200  0.67325700  1
  O  O42  1  0.67647100  0.34038700  0.02531300  1
  O  O43  1  0.65029000  0.32523100  0.52588100  1
  O  O44  1  0.67271400  0.18527000  0.17086700  1
  O  O45  1  0.47759200  0.37997900  0.82369400  1
  O  O46  1  0.51534500  0.32922400  0.16888000  1
  O  O47  1  0.74609000  0.08402400  0.34027700  1
  O  O48  1  0.79518900  0.99988400  0.75012200  1
  O  O49  1  0.76596600  0.98174600  0.56781800  1
  O  O50  1  0.76185900  0.01178700  0.93074000  1
  O  O51  1  0.62123900  0.09897500  0.81747900  1
  O  O52  1  0.50871000  0.18272000  0.67235000  1
  O  O53  1  0.66139600  0.91619700  0.15827700  1
  O  O54  1  0.47226300  0.09075700  0.32857400  1
  O  O55  1  0.34242700  0.26047800  0.33353100  1
  O  O56  1  0.79384900  0.79564800  0.24783800  1
  O  O57  1  0.79350600  0.79464500  0.42359000  1
  O  O58  1  0.22832500  0.22823000  0.57266000  1
  O  O59  1  0.65583100  0.73872200  0.66985700  1
  O  O60  1  0.52915400  0.90958100  0.67432500  1
  O  O61  1  0.33986500  0.07996000  0.83815400  1
  O  O62  1  0.48879100  0.81173600  0.33353900  1
  O  O63  1  0.37985400  0.89919500  0.18011500  1
  O  O64  1  0.24100900  0.99820800  0.07213400  1
  O  O65  1  0.22961300  0.01736400  0.43176000  1
  O  O66  1  0.20685100  0.99911400  0.25087800  1
  O  O67  1  0.26079300  0.91765700  0.66221400  1
  O  O68  1  0.47670400  0.66013100  0.82472100  1
  O  O69  1  0.52331600  0.61964700  0.17668800  1
  O  O70  1  0.33550700  0.81993600  0.82472600  1
  O  O71  1  0.32582200  0.67113100  0.97198900  1
  O  O72  1  0.32541100  0.66392600  0.47752200  1
  O  O73  1  0.18803200  0.67205800  0.32473700  1
  O  O74  1  0.38462000  0.47114200  0.67467400  1
  O  O75  1  0.32304100  0.51147700  0.33228500  1
  O  O76  1  0.08102100  0.74314800  0.16200200  1
  O  O77  1  0.00981100  0.79996200  0.75531600  1
  O  O78  1  0.99899300  0.75602800  0.93223700  1
  O  O79  1  0.07918500  0.61847000  0.66757400  1
  O  O80  1  0.18304900  0.52587600  0.81835300  1
  O  O81  1  0.09173000  0.47587300  0.17962600  1
  O  O82  1  0.25191900  0.33841800  0.15849100  1
  O  O83  1  0.24550500  0.23315400  0.93485300  1
  O  O84  1  0.20718100  0.20685700  0.75326100  1
  O  O85  1  0.08742900  0.34404300  0.66426500  1
  O  O86  1  0.00807400  0.21685700  0.42646000  1
  O  O87  1  0.99778100  0.20517200  0.24794800  1
