# generated using pymatgen
data_Li24Mn7Cr5O36
_symmetry_space_group_name_H-M   'P 1'
_cell_length_a   5.03474200
_cell_length_b   9.74688838
_cell_length_c   13.24092864
_cell_angle_alpha   97.02334241
_cell_angle_beta   100.69239305
_cell_angle_gamma   95.15872026
_symmetry_Int_Tables_number   1
_chemical_formula_structural   Li24Mn7Cr5O36
_chemical_formula_sum   'Li24 Mn7 Cr5 O36'
_cell_volume   629.46240368
_cell_formula_units_Z   1
loop_
 _symmetry_equiv_pos_site_id
 _symmetry_equiv_pos_as_xyz
  1  'x, y, z'
loop_
 _atom_site_type_symbol
 _atom_site_label
 _atom_site_symmetry_multiplicity
 _atom_site_fract_x
 _atom_site_fract_y
 _atom_site_fract_z
 _atom_site_occupancy
  Li  Li0  1  0.17102100  0.99955300  0.83434000  1
  Li  Li1  1  0.05171700  0.99962300  0.61290400  1
  Li  Li2  1  0.99910200  0.74969800  0.24851800  1
  Li  Li3  1  0.33239100  0.75005100  0.91629900  1
  Li  Li4  1  0.05095300  0.49996000  0.11269000  1
  Li  Li5  1  0.37940300  0.49870500  0.77941300  1
  Li  Li6  1  0.17175800  0.49898100  0.33430800  1
  Li  Li7  1  0.50228000  0.50041200  0.00052900  1
  Li  Li8  1  0.28670900  0.50041200  0.55382900  1
  Li  Li9  1  0.33407600  0.24962300  0.41647600  1
  Li  Li10  1  0.50204700  0.00063100  0.50025900  1
  Li  Li11  1  0.28226700  0.99834800  0.05219400  1
  Li  Li12  1  0.61261100  0.00038700  0.72014900  1
  Li  Li13  1  0.38241400  0.00053900  0.28066000  1
  Li  Li14  1  0.71303600  0.99904600  0.94563600  1
  Li  Li15  1  0.66489300  0.75012000  0.58159800  1
  Li  Li16  1  0.70953400  0.49860700  0.44610900  1
  Li  Li17  1  0.83572200  0.50022700  0.66675700  1
  Li  Li18  1  0.61264000  0.50017600  0.22028300  1
  Li  Li19  1  0.95196000  0.50186400  0.88712300  1
  Li  Li20  1  0.66327200  0.25059900  0.08203400  1
  Li  Li21  1  0.83774700  0.99900100  0.16702900  1
  Li  Li22  1  0.99956100  0.24954000  0.74995300  1
  Li  Li23  1  0.94858300  0.00075000  0.38671700  1
  Mn  Mn24  1  0.22226200  0.74995600  0.69467400  1
  Mn  Mn25  1  0.22288000  0.25101500  0.19487200  1
  Mn  Mn26  1  0.44300700  0.25035300  0.63862000  1
  Mn  Mn27  1  0.55399700  0.24886700  0.86032700  1
  Mn  Mn28  1  0.44403900  0.75003600  0.13904500  1
  Mn  Mn29  1  0.55521800  0.74976500  0.36120300  1
  Mn  Mn30  1  0.89021800  0.75066900  0.02793600  1
  Cr  Cr31  1  0.10400100  0.25009000  0.97136100  1
  Cr  Cr32  1  0.10709000  0.74965200  0.47017100  1
  Cr  Cr33  1  0.77363600  0.74981900  0.80358600  1
  Cr  Cr34  1  0.77311500  0.24918900  0.30328500  1
  Cr  Cr35  1  0.89055500  0.25079000  0.52805800  1
  O  O36  1  0.99949800  0.86263100  0.92952200  1
  O  O37  1  0.07415300  0.63454900  0.78440800  1
  O  O38  1  0.99891900  0.36205000  0.42957300  1
  O  O39  1  0.14633700  0.36224300  0.64357100  1
  O  O40  1  0.26653500  0.36324800  0.88355100  1
  O  O41  1  0.33366000  0.86184200  0.59576000  1
  O  O42  1  0.07450000  0.13461500  0.28448200  1
  O  O43  1  0.19176600  0.13774700  0.52414000  1
  O  O44  1  0.40541500  0.13548400  0.95170600  1
  O  O45  1  0.14561000  0.86162000  0.14348300  1
  O  O46  1  0.26517700  0.86304300  0.38339600  1
  O  O47  1  0.47140300  0.86249200  0.80898500  1
  O  O48  1  0.33049100  0.13860600  0.73780500  1
  O  O49  1  0.18892300  0.63883000  0.02385000  1
  O  O50  1  0.40777700  0.63465400  0.45115200  1
  O  O51  1  0.52309900  0.63898300  0.69145500  1
  O  O52  1  0.33089000  0.63868700  0.23810800  1
  O  O53  1  0.67105700  0.63852200  0.90494800  1
  O  O54  1  0.33664000  0.36336600  0.09719100  1
  O  O55  1  0.66855500  0.36166200  0.76214200  1
  O  O56  1  0.47143200  0.36264900  0.30951400  1
  O  O57  1  0.59577400  0.36496100  0.54916300  1
  O  O58  1  0.80957300  0.36166300  0.97568200  1
  O  O59  1  0.66774000  0.86180700  0.26190800  1
  O  O60  1  0.52400900  0.13917700  0.19082400  1
  O  O61  1  0.73841600  0.13739400  0.61842400  1
  O  O62  1  0.85191300  0.13808200  0.85607100  1
  O  O63  1  0.59854800  0.86359500  0.04847900  1
  O  O64  1  0.80498600  0.86288700  0.47577200  1
  O  O65  1  0.93202600  0.86316600  0.71692900  1
  O  O66  1  0.66917000  0.13740100  0.40334000  1
  O  O67  1  0.73558700  0.63668500  0.11911700  1
  O  O68  1  0.85578700  0.63880200  0.35796100  1
  O  O69  1  0.00218500  0.63821400  0.57107700  1
  O  O70  1  0.93182400  0.36306300  0.21670900  1
  O  O71  1  0.00490900  0.13852500  0.07085800  1
