# generated using pymatgen
data_Li2CrAsCO7
_symmetry_space_group_name_H-M   'P 1'
_cell_length_a   6.58533400
_cell_length_b   10.28381817
_cell_length_c   8.62338308
_cell_angle_alpha   86.06432355
_cell_angle_beta   89.99993179
_cell_angle_gamma   89.99997856
_symmetry_Int_Tables_number   1
_chemical_formula_structural   Li2CrAsCO7
_chemical_formula_sum   'Li8 Cr4 As4 C4 O28'
_cell_volume   582.61878568
_cell_formula_units_Z   4
loop_
 _symmetry_equiv_pos_site_id
 _symmetry_equiv_pos_as_xyz
  1  'x, y, z'
loop_
 _atom_site_type_symbol
 _atom_site_label
 _atom_site_symmetry_multiplicity
 _atom_site_fract_x
 _atom_site_fract_y
 _atom_site_fract_z
 _atom_site_occupancy
  Li  Li0  1  0.50684300  0.10801100  0.21393200  1
  Li  Li1  1  0.50680000  0.60791500  0.21389400  1
  Li  Li2  1  0.99315300  0.10801500  0.21393000  1
  Li  Li3  1  0.99319200  0.60791800  0.21389300  1
  Li  Li4  1  0.49317600  0.39199600  0.78611500  1
  Li  Li5  1  0.49315400  0.89208800  0.78611600  1
  Li  Li6  1  0.00682000  0.39199800  0.78611500  1
  Li  Li7  1  0.00684200  0.89208500  0.78611500  1
  Cr  Cr8  1  0.75001700  0.89628600  0.33505600  1
  Cr  Cr9  1  0.25000200  0.60377200  0.66486200  1
  Cr  Cr10  1  0.74999500  0.39623000  0.33519000  1
  Cr  Cr11  1  0.24999900  0.10378000  0.66485200  1
  As  As12  1  0.24999800  0.36071900  0.41964700  1
  As  As13  1  0.24999900  0.86076500  0.41970000  1
  As  As14  1  0.75000000  0.13926400  0.58035000  1
  As  As15  1  0.75000000  0.63922600  0.58028300  1
  C  C16  1  0.74999900  0.36378400  0.05474200  1
  C  C17  1  0.75000400  0.86387100  0.05468400  1
  C  C18  1  0.24999900  0.13623000  0.94531200  1
  C  C19  1  0.25000200  0.63611400  0.94526000  1
  O  O20  1  0.24999700  0.15080400  0.08942100  1
  O  O21  1  0.24999700  0.65065000  0.08941500  1
  O  O22  1  0.74999700  0.34921000  0.91062100  1
  O  O23  1  0.74999500  0.84934400  0.91051200  1
  O  O24  1  0.74999700  0.47910200  0.11341400  1
  O  O25  1  0.75000400  0.97917600  0.11343700  1
  O  O26  1  0.24999800  0.02091000  0.88662600  1
  O  O27  1  0.25000300  0.52080100  0.88653300  1
  O  O28  1  0.74999600  0.26555100  0.16232000  1
  O  O29  1  0.75000500  0.76561100  0.16218300  1
  O  O30  1  0.24999700  0.23446000  0.83772600  1
  O  O31  1  0.25000100  0.73437300  0.83773700  1
  O  O32  1  0.75000400  0.08047500  0.39748400  1
  O  O33  1  0.74999700  0.58053900  0.39741200  1
  O  O34  1  0.25000200  0.41946000  0.60253400  1
  O  O35  1  0.25000200  0.91947600  0.60257900  1
  O  O36  1  0.24999900  0.19293200  0.44919700  1
  O  O37  1  0.25000400  0.69299500  0.44921600  1
  O  O38  1  0.74999500  0.30703900  0.55081600  1
  O  O39  1  0.75000600  0.80698800  0.55075900  1
  O  O40  1  0.04782800  0.41556000  0.30999200  1
  O  O41  1  0.04784200  0.91562200  0.31004700  1
  O  O42  1  0.45216500  0.41555900  0.30998900  1
  O  O43  1  0.45217000  0.91562000  0.31005300  1
  O  O44  1  0.54784500  0.08445800  0.69002400  1
  O  O45  1  0.54785000  0.58437800  0.68994000  1
  O  O46  1  0.95215400  0.08445800  0.69002600  1
  O  O47  1  0.95215700  0.58437900  0.68993500  1
