# generated using pymatgen
data_Li5Sb(P2O7)2
_symmetry_space_group_name_H-M   'P 1'
_cell_length_a   7.25155900
_cell_length_b   8.57683561
_cell_length_c   9.86659859
_cell_angle_alpha   77.44954296
_cell_angle_beta   76.87593817
_cell_angle_gamma   68.81191876
_symmetry_Int_Tables_number   1
_chemical_formula_structural   Li5Sb(P2O7)2
_chemical_formula_sum   'Li10 Sb2 P8 O28'
_cell_volume   551.01458626
_cell_formula_units_Z   2
loop_
 _symmetry_equiv_pos_site_id
 _symmetry_equiv_pos_as_xyz
  1  'x, y, z'
loop_
 _atom_site_type_symbol
 _atom_site_label
 _atom_site_symmetry_multiplicity
 _atom_site_fract_x
 _atom_site_fract_y
 _atom_site_fract_z
 _atom_site_occupancy
  Li  Li0  1  0.33777000  0.18450100  0.27655900  1
  Li  Li1  1  0.31457800  0.25168500  0.58725600  1
  Li  Li2  1  0.75254300  0.26350100  0.09941200  1
  Li  Li3  1  0.03288600  0.46238600  0.14105200  1
  Li  Li4  1  0.44624900  0.48377000  0.35657900  1
  Li  Li5  1  0.55375100  0.51623000  0.64342100  1
  Li  Li6  1  0.96711400  0.53761400  0.85894800  1
  Li  Li7  1  0.24745700  0.73649900  0.90058800  1
  Li  Li8  1  0.68542200  0.74831500  0.41274400  1
  Li  Li9  1  0.66223000  0.81549900  0.72344100  1
  Sb  Sb10  1  0.87572100  0.14720100  0.75968800  1
  Sb  Sb11  1  0.12427900  0.85279900  0.24031200  1
  P  P12  1  0.16247400  0.14459400  0.96239100  1
  P  P13  1  0.69020400  0.09949500  0.45226400  1
  P  P14  1  0.41546000  0.34113600  0.94375900  1
  P  P15  1  0.87711600  0.36299100  0.42875800  1
  P  P16  1  0.12288400  0.63700900  0.57124200  1
  P  P17  1  0.58454000  0.65886400  0.05624100  1
  P  P18  1  0.30979600  0.90050500  0.54773600  1
  P  P19  1  0.83752600  0.85540600  0.03760900  1
  O  O20  1  0.21620500  0.05858800  0.62128000  1
  O  O21  1  0.07645400  0.20501400  0.10447400  1
  O  O22  1  0.79523200  0.04142200  0.03858800  1
  O  O23  1  0.65660700  0.06294000  0.61341200  1
  O  O24  1  0.02304600  0.26082600  0.85031600  1
  O  O25  1  0.50104600  0.22850900  0.39745500  1
  O  O26  1  0.37202900  0.18187400  0.90523300  1
  O  O27  1  0.07462200  0.37004500  0.34029300  1
  O  O28  1  0.46051000  0.30186300  0.09267500  1
  O  O29  1  0.86211900  0.18982300  0.39931300  1
  O  O30  1  0.60058300  0.34941400  0.82745500  1
  O  O31  1  0.86730400  0.34292900  0.59201700  1
  O  O32  1  0.23086200  0.49731400  0.92293100  1
  O  O33  1  0.30845300  0.48633000  0.60316900  1
  O  O34  1  0.69154700  0.51367000  0.39683100  1
  O  O35  1  0.76913800  0.50268600  0.07706900  1
  O  O36  1  0.13269600  0.65707100  0.40798300  1
  O  O37  1  0.39941700  0.65058600  0.17254500  1
  O  O38  1  0.13788100  0.81017700  0.60068700  1
  O  O39  1  0.53949000  0.69813700  0.90732500  1
  O  O40  1  0.92537800  0.62995500  0.65970700  1
  O  O41  1  0.62797100  0.81812600  0.09476700  1
  O  O42  1  0.49895400  0.77149100  0.60254500  1
  O  O43  1  0.97695400  0.73917400  0.14968400  1
  O  O44  1  0.34339300  0.93706000  0.38658800  1
  O  O45  1  0.20476800  0.95857800  0.96141200  1
  O  O46  1  0.92354600  0.79498600  0.89552600  1
  O  O47  1  0.78379500  0.94141200  0.37872000  1
