# generated using pymatgen
data_Li5Fe5Si7O24
_symmetry_space_group_name_H-M   'P 1'
_cell_length_a   7.85303300
_cell_length_b   7.95467883
_cell_length_c   9.78001688
_cell_angle_alpha   91.08665429
_cell_angle_beta   91.45950460
_cell_angle_gamma   90.53503727
_symmetry_Int_Tables_number   1
_chemical_formula_structural   Li5Fe5Si7O24
_chemical_formula_sum   'Li5 Fe5 Si7 O24'
_cell_volume   610.60404838
_cell_formula_units_Z   1
loop_
 _symmetry_equiv_pos_site_id
 _symmetry_equiv_pos_as_xyz
  1  'x, y, z'
loop_
 _atom_site_type_symbol
 _atom_site_label
 _atom_site_symmetry_multiplicity
 _atom_site_fract_x
 _atom_site_fract_y
 _atom_site_fract_z
 _atom_site_occupancy
  Li  Li0  1  0.43233600  0.30512800  0.74992100  1
  Li  Li1  1  0.49195700  0.81966800  0.20708100  1
  Li  Li2  1  0.82172700  0.47485400  0.28414200  1
  Li  Li3  1  0.72720300  0.99582300  0.99283800  1
  Li  Li4  1  0.01151900  0.33689400  0.02907900  1
  Fe  Fe5  1  0.12149900  0.66844400  0.23190400  1
  Fe  Fe6  1  0.37561400  0.16921600  0.01643700  1
  Fe  Fe7  1  0.66130900  0.11999600  0.28965200  1
  Fe  Fe8  1  0.83341900  0.62306500  0.97420500  1
  Fe  Fe9  1  0.87157200  0.32455900  0.71399600  1
  Si  Si10  1  0.07860500  0.09621700  0.24252300  1
  Si  Si11  1  0.16208200  0.37328700  0.46943300  1
  Si  Si12  1  0.32999500  0.87475900  0.76720600  1
  Si  Si13  1  0.42133300  0.59420900  0.99394500  1
  Si  Si14  1  0.56492300  0.43080800  0.50306700  1
  Si  Si15  1  0.62030700  0.82470600  0.53944500  1
  Si  Si16  1  0.92709500  0.91592400  0.75198300  1
  O  O17  1  0.05297500  0.35718400  0.60425600  1
  O  O18  1  0.09346300  0.53207300  0.38292900  1
  O  O19  1  0.11145800  0.89848100  0.26351100  1
  O  O20  1  0.15357400  0.19766900  0.37813600  1
  O  O21  1  0.12767000  0.87499600  0.71898300  1
  O  O22  1  0.16823600  0.17306400  0.10521800  1
  O  O23  1  0.32191000  0.64766800  0.13311600  1
  O  O24  1  0.36192000  0.39691000  0.52320000  1
  O  O25  1  0.36003700  0.70922200  0.86314300  1
  O  O26  1  0.40282000  0.39438300  0.94675200  1
  O  O27  1  0.38419700  0.05477900  0.84384800  1
  O  O28  1  0.45548200  0.85904900  0.63547000  1
  O  O29  1  0.54040200  0.05284600  0.12399300  1
  O  O30  1  0.60792300  0.93729000  0.40062700  1
  O  O31  1  0.60961400  0.62995600  0.47916100  1
  O  O32  1  0.63980100  0.34009900  0.36492800  1
  O  O33  1  0.61416300  0.64974700  0.04375000  1
  O  O34  1  0.64403900  0.36086400  0.64628900  1
  O  O35  1  0.80342200  0.84925900  0.62188700  1
  O  O36  1  0.87638700  0.13871100  0.21073900  1
  O  O37  1  0.86679200  0.83223200  0.89556500  1
  O  O38  1  0.88891500  0.11081800  0.78694600  1
  O  O39  1  0.90769500  0.44130100  0.87681500  1
  O  O40  1  0.94580900  0.55314000  0.13568400  1
