# generated using pymatgen
data_Li5CoHO4
_symmetry_space_group_name_H-M   'P 1'
_cell_length_a   8.80857200
_cell_length_b   8.94509300
_cell_length_c   10.69823000
_cell_angle_alpha   90.00000000
_cell_angle_beta   90.00000000
_cell_angle_gamma   90.00000000
_symmetry_Int_Tables_number   1
_chemical_formula_structural   Li5CoHO4
_chemical_formula_sum   'Li40 Co8 H8 O32'
_cell_volume   842.95093990
_cell_formula_units_Z   8
loop_
 _symmetry_equiv_pos_site_id
 _symmetry_equiv_pos_as_xyz
  1  'x, y, z'
loop_
 _atom_site_type_symbol
 _atom_site_label
 _atom_site_symmetry_multiplicity
 _atom_site_fract_x
 _atom_site_fract_y
 _atom_site_fract_z
 _atom_site_occupancy
  Li  Li0  1  0.97217500  0.58393900  0.20044900  1
  Li  Li1  1  0.97217500  0.91606100  0.20044900  1
  Li  Li2  1  0.07732300  0.43522700  0.42722700  1
  Li  Li3  1  0.07732300  0.06477300  0.42722700  1
  Li  Li4  1  0.07625700  0.75000000  0.43843600  1
  Li  Li5  1  0.12070200  0.25000000  0.98203900  1
  Li  Li6  1  0.11331800  0.56864900  0.98573900  1
  Li  Li7  1  0.11331800  0.93135100  0.98573900  1
  Li  Li8  1  0.20700200  0.58258800  0.64314200  1
  Li  Li9  1  0.20700200  0.91741200  0.64314200  1
  Li  Li10  1  0.29299800  0.08258800  0.14314200  1
  Li  Li11  1  0.29299800  0.41741200  0.14314200  1
  Li  Li12  1  0.38668200  0.06864900  0.48573900  1
  Li  Li13  1  0.38668200  0.43135100  0.48573900  1
  Li  Li14  1  0.37929800  0.75000000  0.48203900  1
  Li  Li15  1  0.42374300  0.25000000  0.93843600  1
  Li  Li16  1  0.42267700  0.56477300  0.92722700  1
  Li  Li17  1  0.42267700  0.93522700  0.92722700  1
  Li  Li18  1  0.52782500  0.08393900  0.70044900  1
  Li  Li19  1  0.52782500  0.41606100  0.70044900  1
  Li  Li20  1  0.47217500  0.58393900  0.29955100  1
  Li  Li21  1  0.47217500  0.91606100  0.29955100  1
  Li  Li22  1  0.57732300  0.06477300  0.07277300  1
  Li  Li23  1  0.57732300  0.43522700  0.07277300  1
  Li  Li24  1  0.57625700  0.75000000  0.06156400  1
  Li  Li25  1  0.62070200  0.25000000  0.51796100  1
  Li  Li26  1  0.61331800  0.56864900  0.51426100  1
  Li  Li27  1  0.61331800  0.93135100  0.51426100  1
  Li  Li28  1  0.70700200  0.58258800  0.85685800  1
  Li  Li29  1  0.70700200  0.91741200  0.85685800  1
  Li  Li30  1  0.79299800  0.08258800  0.35685800  1
  Li  Li31  1  0.79299800  0.41741200  0.35685800  1
  Li  Li32  1  0.88668200  0.06864900  0.01426100  1
  Li  Li33  1  0.88668200  0.43135100  0.01426100  1
  Li  Li34  1  0.87929800  0.75000000  0.01796100  1
  Li  Li35  1  0.92374300  0.25000000  0.56156400  1
  Li  Li36  1  0.92267700  0.93522700  0.57277300  1
  Li  Li37  1  0.92267700  0.56477300  0.57277300  1
  Li  Li38  1  0.02782500  0.08393900  0.79955100  1
  Li  Li39  1  0.02782500  0.41606100  0.79955100  1
  Co  Co40  1  0.01977700  0.25000000  0.21846100  1
  Co  Co41  1  0.21394300  0.25000000  0.62023700  1
  Co  Co42  1  0.28605700  0.75000000  0.12023700  1
  Co  Co43  1  0.48022300  0.75000000  0.71846100  1
  Co  Co44  1  0.51977700  0.25000000  0.28153900  1
  Co  Co45  1  0.71394300  0.25000000  0.87976300  1
  Co  Co46  1  0.78605700  0.75000000  0.37976300  1
  Co  Co47  1  0.98022300  0.75000000  0.78153900  1
  H  H48  1  0.20970300  0.90420400  0.31111200  1
  H  H49  1  0.20970300  0.59579600  0.31111200  1
  H  H50  1  0.29029700  0.09579600  0.81111200  1
  H  H51  1  0.29029700  0.40420400  0.81111200  1
  H  H52  1  0.70970300  0.59579600  0.18888800  1
  H  H53  1  0.70970300  0.90420400  0.18888800  1
  H  H54  1  0.79029700  0.09579600  0.68888800  1
  H  H55  1  0.79029700  0.40420400  0.68888800  1
  O  O56  1  0.05973500  0.75000000  0.62420500  1
  O  O57  1  0.07427700  0.08649400  0.11785400  1
  O  O58  1  0.07427700  0.41350600  0.11785400  1
  O  O59  1  0.07640900  0.41119800  0.61630200  1
  O  O60  1  0.07640900  0.08880200  0.61630200  1
  O  O61  1  0.08072500  0.75000000  0.10917700  1
  O  O62  1  0.24152700  0.07240600  0.89132200  1
  O  O63  1  0.24152700  0.42759400  0.89132200  1
  O  O64  1  0.25847300  0.57240600  0.39132200  1
  O  O65  1  0.25847300  0.92759400  0.39132200  1
  O  O66  1  0.41927500  0.25000000  0.60917700  1
  O  O67  1  0.42359100  0.58880200  0.11630200  1
  O  O68  1  0.42359100  0.91119800  0.11630200  1
  O  O69  1  0.42572300  0.58649400  0.61785400  1
  O  O70  1  0.42572300  0.91350600  0.61785400  1
  O  O71  1  0.44026500  0.25000000  0.12420500  1
  O  O72  1  0.55973500  0.75000000  0.87579500  1
  O  O73  1  0.57427700  0.08649400  0.38214600  1
  O  O74  1  0.57427700  0.41350600  0.38214600  1
  O  O75  1  0.57640900  0.08880200  0.88369800  1
  O  O76  1  0.57640900  0.41119800  0.88369800  1
  O  O77  1  0.58072500  0.75000000  0.39082300  1
  O  O78  1  0.74152700  0.07240600  0.60867800  1
  O  O79  1  0.74152700  0.42759400  0.60867800  1
  O  O80  1  0.75847300  0.57240600  0.10867800  1
  O  O81  1  0.75847300  0.92759400  0.10867800  1
  O  O82  1  0.91927500  0.25000000  0.89082300  1
  O  O83  1  0.92359100  0.91119800  0.38369800  1
  O  O84  1  0.92359100  0.58880200  0.38369800  1
  O  O85  1  0.92572300  0.91350600  0.88214600  1
  O  O86  1  0.92572300  0.58649400  0.88214600  1
  O  O87  1  0.94026500  0.25000000  0.37579500  1
