# generated using pymatgen
data_Li7Mn8(BO3)8
_symmetry_space_group_name_H-M   'P 1'
_cell_length_a   5.28533100
_cell_length_b   9.10165139
_cell_length_c   10.46373087
_cell_angle_alpha   89.59258812
_cell_angle_beta   88.27932344
_cell_angle_gamma   89.50374499
_symmetry_Int_Tables_number   1
_chemical_formula_structural   Li7Mn8(BO3)8
_chemical_formula_sum   'Li7 Mn8 B8 O24'
_cell_volume   503.10262781
_cell_formula_units_Z   1
loop_
 _symmetry_equiv_pos_site_id
 _symmetry_equiv_pos_as_xyz
  1  'x, y, z'
loop_
 _atom_site_type_symbol
 _atom_site_label
 _atom_site_symmetry_multiplicity
 _atom_site_fract_x
 _atom_site_fract_y
 _atom_site_fract_z
 _atom_site_occupancy
  Li  Li0  1  0.16564500  0.01512400  0.32410500  1
  Li  Li1  1  0.15626600  0.98083000  0.83986000  1
  Li  Li2  1  0.33931700  0.50028900  0.59031500  1
  Li  Li3  1  0.65999200  0.51685200  0.33741500  1
  Li  Li4  1  0.66024700  0.48474500  0.83022600  1
  Li  Li5  1  0.84646100  0.00415300  0.08390700  1
  Li  Li6  1  0.84194800  0.00853400  0.58658200  1
  Mn  Mn7  1  0.16509400  0.33692600  0.36145300  1
  Mn  Mn8  1  0.16135400  0.64812400  0.87439900  1
  Mn  Mn9  1  0.34837300  0.81462700  0.11984700  1
  Mn  Mn10  1  0.33445700  0.16269000  0.61732300  1
  Mn  Mn11  1  0.65716400  0.84929600  0.37335000  1
  Mn  Mn12  1  0.65235800  0.16384600  0.87035800  1
  Mn  Mn13  1  0.82722100  0.34583600  0.11491600  1
  Mn  Mn14  1  0.84120400  0.66877300  0.61911800  1
  B  B15  1  0.16727000  0.66978100  0.37149600  1
  B  B16  1  0.16142000  0.32299500  0.86869400  1
  B  B17  1  0.33106700  0.16380200  0.12369700  1
  B  B18  1  0.33139700  0.82884100  0.62930600  1
  B  B19  1  0.67139700  0.17396200  0.37676200  1
  B  B20  1  0.67318800  0.82305500  0.88177600  1
  B  B21  1  0.82831400  0.68484600  0.12987700  1
  B  B22  1  0.83466400  0.33083900  0.62253100  1
  O  O23  1  0.06975600  0.68997200  0.07398100  1
  O  O24  1  0.08640300  0.33499900  0.57989200  1
  O  O25  1  0.20464500  0.03019800  0.13232600  1
  O  O26  1  0.20399300  0.29051300  0.16080600  1
  O  O27  1  0.18216100  0.95279400  0.64486100  1
  O  O28  1  0.23238000  0.69182000  0.66340200  1
  O  O29  1  0.27750800  0.79806300  0.31453800  1
  O  O30  1  0.26114900  0.18480200  0.83552400  1
  O  O31  1  0.31311900  0.54823300  0.39371400  1
  O  O32  1  0.31269800  0.44361000  0.86351400  1
  O  O33  1  0.41168500  0.15621600  0.40472600  1
  O  O34  1  0.41593200  0.82091400  0.92592300  1
  O  O35  1  0.58560600  0.16686000  0.08221600  1
  O  O36  1  0.58047800  0.84080800  0.58168300  1
  O  O37  1  0.70482800  0.55841600  0.15224100  1
  O  O38  1  0.71331800  0.82268500  0.16115600  1
  O  O39  1  0.69454700  0.45867800  0.63561100  1
  O  O40  1  0.72209000  0.19585800  0.65632300  1
  O  O41  1  0.76604800  0.30915700  0.33880400  1
  O  O42  1  0.77688100  0.69391100  0.83274700  1
  O  O43  1  0.82978000  0.05244900  0.39149500  1
  O  O44  1  0.80786100  0.95049400  0.89068000  1
  O  O45  1  0.91189400  0.67436100  0.40780300  1
  O  O46  1  0.90384400  0.33734600  0.90469000  1
