# generated using pymatgen
data_Li4V5Cr3O16
_symmetry_space_group_name_H-M   'P 1'
_cell_length_a   5.87839103
_cell_length_b   5.87839103
_cell_length_c   9.57075341
_cell_angle_alpha   89.23048088
_cell_angle_beta   89.23048088
_cell_angle_gamma   60.97572659
_symmetry_Int_Tables_number   1
_chemical_formula_structural   Li4V5Cr3O16
_chemical_formula_sum   'Li4 V5 Cr3 O16'
_cell_volume   289.15289295
_cell_formula_units_Z   1
loop_
 _symmetry_equiv_pos_site_id
 _symmetry_equiv_pos_as_xyz
  1  'x, y, z'
loop_
 _atom_site_type_symbol
 _atom_site_label
 _atom_site_symmetry_multiplicity
 _atom_site_fract_x
 _atom_site_fract_y
 _atom_site_fract_z
 _atom_site_occupancy
  Li  Li0  1  0.66749800  0.66749800  0.89609800  1
  Li  Li1  1  0.99948900  0.99948900  0.99798200  1
  Li  Li2  1  0.99869000  0.99869000  0.49378900  1
  Li  Li3  1  0.33469800  0.33469800  0.39153800  1
  V  V4  1  0.66112800  0.16500900  0.71513800  1
  V  V5  1  0.66305800  0.66305800  0.48591400  1
  V  V6  1  0.82639200  0.82639200  0.21734000  1
  V  V7  1  0.33451500  0.33451500  0.99238800  1
  V  V8  1  0.16500900  0.66112800  0.71513800  1
  Cr  Cr9  1  0.82623300  0.34127900  0.21246600  1
  Cr  Cr10  1  0.34127900  0.82623300  0.21246600  1
  Cr  Cr11  1  0.16928600  0.16928600  0.71346300  1
  O  O12  1  0.82671700  0.32174600  0.60402000  1
  O  O13  1  0.51913100  0.51913100  0.33653200  1
  O  O14  1  0.67661400  0.67661400  0.10329700  1
  O  O15  1  0.99453700  0.99453700  0.30589300  1
  O  O16  1  0.99686900  0.99686900  0.81271100  1
  O  O17  1  0.32174600  0.82671700  0.60402000  1
  O  O18  1  0.96341300  0.52267300  0.34007200  1
  O  O19  1  0.52267300  0.96341300  0.34007200  1
  O  O20  1  0.17297900  0.17297900  0.09099400  1
  O  O21  1  0.83350200  0.83350200  0.60772600  1
  O  O22  1  0.48707400  0.04003100  0.83946500  1
  O  O23  1  0.04003100  0.48707400  0.83946500  1
  O  O24  1  0.33944000  0.33944000  0.60367900  1
  O  O25  1  0.66530700  0.16854700  0.09540000  1
  O  O26  1  0.47832700  0.47832700  0.84423100  1
  O  O27  1  0.16854700  0.66530700  0.09540000  1
