# generated using pymatgen
data_Li3Mn4(BO3)4
_symmetry_space_group_name_H-M   'P 1'
_cell_length_a   6.17622500
_cell_length_b   9.35528018
_cell_length_c   9.66063612
_cell_angle_alpha   66.77132941
_cell_angle_beta   80.26678876
_cell_angle_gamma   83.23851217
_symmetry_Int_Tables_number   1
_chemical_formula_structural   Li3Mn4(BO3)4
_chemical_formula_sum   'Li6 Mn8 B8 O24'
_cell_volume   504.75876136
_cell_formula_units_Z   2
loop_
 _symmetry_equiv_pos_site_id
 _symmetry_equiv_pos_as_xyz
  1  'x, y, z'
loop_
 _atom_site_type_symbol
 _atom_site_label
 _atom_site_symmetry_multiplicity
 _atom_site_fract_x
 _atom_site_fract_y
 _atom_site_fract_z
 _atom_site_occupancy
  Li  Li0  1  0.53609400  0.87157500  0.78142300  1
  Li  Li1  1  0.02303600  0.34976000  0.78340800  1
  Li  Li2  1  0.46390600  0.12842500  0.21857700  1
  Li  Li3  1  0.53088900  0.37072000  0.28263700  1
  Li  Li4  1  0.97696400  0.65024000  0.21659200  1
  Li  Li5  1  0.46911100  0.62928000  0.71736300  1
  Mn  Mn6  1  0.25238500  0.04549000  0.95248400  1
  Mn  Mn7  1  0.74761500  0.95451000  0.04751600  1
  Mn  Mn8  1  0.23804200  0.95600200  0.55584000  1
  Mn  Mn9  1  0.24280000  0.45233800  0.04983700  1
  Mn  Mn10  1  0.76195800  0.04399800  0.44416000  1
  Mn  Mn11  1  0.75720000  0.54766200  0.95016300  1
  Mn  Mn12  1  0.25357600  0.55928000  0.44901600  1
  Mn  Mn13  1  0.74642400  0.44072000  0.55098400  1
  B  B14  1  0.10154500  0.78238700  0.89114500  1
  B  B15  1  0.59037400  0.78383400  0.38355000  1
  B  B16  1  0.58008000  0.28521400  0.88305000  1
  B  B17  1  0.09170000  0.28813800  0.37656700  1
  B  B18  1  0.89845500  0.21761300  0.10885500  1
  B  B19  1  0.40962600  0.21616600  0.61645000  1
  B  B20  1  0.41992000  0.71478600  0.11695000  1
  B  B21  1  0.90830000  0.71186200  0.62343300  1
  O  O22  1  0.25620900  0.77768200  0.77134800  1
  O  O23  1  0.03225400  0.92077100  0.90983500  1
  O  O24  1  0.49701500  0.85443400  0.99589000  1
  O  O25  1  0.72368200  0.77563500  0.25901100  1
  O  O26  1  0.52018900  0.92799200  0.39709000  1
  O  O27  1  0.50298500  0.14556600  0.00411000  1
  O  O28  1  0.01225300  0.14758800  0.48381400  1
  O  O29  1  0.74053400  0.27775300  0.77116600  1
  O  O30  1  0.25981100  0.28144600  0.26459300  1
  O  O31  1  0.98774700  0.85241200  0.51618600  1
  O  O32  1  0.96774600  0.07922900  0.09016500  1
  O  O33  1  0.47981100  0.07200800  0.60291000  1
  O  O34  1  0.50166200  0.42754400  0.89289400  1
  O  O35  1  0.00977300  0.43029800  0.38515000  1
  O  O36  1  0.01737300  0.64630400  0.00356700  1
  O  O37  1  0.74379100  0.22231800  0.22865200  1
  O  O38  1  0.27631800  0.22436500  0.74098900  1
  O  O39  1  0.98262700  0.35369600  0.99643300  1
  O  O40  1  0.47846300  0.35243700  0.49450400  1
  O  O41  1  0.49833800  0.57245600  0.10710600  1
  O  O42  1  0.25946600  0.72224700  0.22883400  1
  O  O43  1  0.52153700  0.64756300  0.50549600  1
  O  O44  1  0.99022700  0.56970200  0.61485000  1
  O  O45  1  0.74018900  0.71855400  0.73540700  1
