# generated using pymatgen
data_Li4V5Sn3O16
_symmetry_space_group_name_H-M   'P 1'
_cell_length_a   6.11463400
_cell_length_b   6.14425374
_cell_length_c   9.73347956
_cell_angle_alpha   90.64389024
_cell_angle_beta   89.70247910
_cell_angle_gamma   119.72390223
_symmetry_Int_Tables_number   1
_chemical_formula_structural   Li4V5Sn3O16
_chemical_formula_sum   'Li4 V5 Sn3 O16'
_cell_volume   317.55024714
_cell_formula_units_Z   1
loop_
 _symmetry_equiv_pos_site_id
 _symmetry_equiv_pos_as_xyz
  1  'x, y, z'
loop_
 _atom_site_type_symbol
 _atom_site_label
 _atom_site_symmetry_multiplicity
 _atom_site_fract_x
 _atom_site_fract_y
 _atom_site_fract_z
 _atom_site_occupancy
  Li  Li0  1  0.32788800  0.65190500  0.89088300  1
  Li  Li1  1  0.01230000  0.02507300  0.99241000  1
  Li  Li2  1  0.00502500  0.01214200  0.49972100  1
  Li  Li3  1  0.66661800  0.33148600  0.39578700  1
  V  V4  1  0.32825900  0.66346100  0.49019500  1
  V  V5  1  0.16901300  0.33778000  0.21433500  1
  V  V6  1  0.66584300  0.32713000  0.98598100  1
  V  V7  1  0.33811600  0.16883000  0.71140900  1
  V  V8  1  0.82515000  0.16565500  0.71354000  1
  Sn  Sn9  1  0.66087400  0.82995800  0.21356900  1
  Sn  Sn10  1  0.16878700  0.83043600  0.21326100  1
  Sn  Sn11  1  0.82982500  0.66008700  0.71420000  1
  O  O12  1  0.66949600  0.84187600  0.59972400  1
  O  O13  1  0.48048200  0.96390500  0.34620500  1
  O  O14  1  0.33361700  0.66553300  0.09701100  1
  O  O15  1  0.99905500  0.00063800  0.31650700  1
  O  O16  1  0.99326100  0.00511200  0.80983900  1
  O  O17  1  0.16950300  0.84255900  0.59986600  1
  O  O18  1  0.47494000  0.51568200  0.34241700  1
  O  O19  1  0.04038700  0.51715900  0.34207700  1
  O  O20  1  0.83853500  0.67580200  0.09135300  1
  O  O21  1  0.14804000  0.32068800  0.60959700  1
  O  O22  1  0.95919500  0.46936100  0.84069400  1
  O  O23  1  0.51199300  0.46727400  0.84114500  1
  O  O24  1  0.67712800  0.32888600  0.60126900  1
  O  O25  1  0.84166900  0.16996800  0.10184600  1
  O  O26  1  0.53756300  0.04370600  0.83260100  1
  O  O27  1  0.32773700  0.16790400  0.10039700  1
