# generated using pymatgen
data_LiNi3P3O11
_symmetry_space_group_name_H-M   'P 1'
_cell_length_a   8.94507200
_cell_length_b   7.72916700
_cell_length_c   11.19640120
_cell_angle_alpha   81.65514466
_cell_angle_beta   90.00000000
_cell_angle_gamma   90.00000000
_symmetry_Int_Tables_number   1
_chemical_formula_structural   LiNi3P3O11
_chemical_formula_sum   'Li4 Ni12 P12 O44'
_cell_volume   765.90052053
_cell_formula_units_Z   4
loop_
 _symmetry_equiv_pos_site_id
 _symmetry_equiv_pos_as_xyz
  1  'x, y, z'
loop_
 _atom_site_type_symbol
 _atom_site_label
 _atom_site_symmetry_multiplicity
 _atom_site_fract_x
 _atom_site_fract_y
 _atom_site_fract_z
 _atom_site_occupancy
  Li  Li0  1  0.73871200  0.88722500  0.50396100  1
  Li  Li1  1  0.76128800  0.88722500  0.00396100  1
  Li  Li2  1  0.23871200  0.11277500  0.99603900  1
  Li  Li3  1  0.26128800  0.11277500  0.49603900  1
  Ni  Ni4  1  0.37108100  0.92519800  0.75941000  1
  Ni  Ni5  1  0.12891900  0.92519800  0.25941000  1
  Ni  Ni6  1  0.36064900  0.54860200  0.93130300  1
  Ni  Ni7  1  0.37740300  0.56812200  0.65903200  1
  Ni  Ni8  1  0.13935100  0.54860200  0.43130300  1
  Ni  Ni9  1  0.87740300  0.43187800  0.84096800  1
  Ni  Ni10  1  0.12259700  0.56812200  0.15903200  1
  Ni  Ni11  1  0.86064900  0.45139800  0.56869700  1
  Ni  Ni12  1  0.62259700  0.43187800  0.34096800  1
  Ni  Ni13  1  0.63935100  0.45139800  0.06869700  1
  Ni  Ni14  1  0.87108100  0.07480200  0.74059000  1
  Ni  Ni15  1  0.62891900  0.07480200  0.24059000  1
  P  P16  1  0.06928600  0.78431000  0.90327800  1
  P  P17  1  0.06409800  0.77672600  0.64702400  1
  P  P18  1  0.43071400  0.78431000  0.40327800  1
  P  P19  1  0.67614800  0.68504900  0.79002400  1
  P  P20  1  0.43590200  0.77672600  0.14702400  1
  P  P21  1  0.82385200  0.68504900  0.29002400  1
  P  P22  1  0.17614800  0.31495100  0.70997600  1
  P  P23  1  0.56409800  0.22327400  0.85297600  1
  P  P24  1  0.32385200  0.31495100  0.20997600  1
  P  P25  1  0.56928600  0.21569000  0.59672200  1
  P  P26  1  0.93590200  0.22327400  0.35297600  1
  P  P27  1  0.93071400  0.21569000  0.09672200  1
  O  O28  1  0.99671700  0.96432000  0.88202400  1
  O  O29  1  0.98040400  0.94864400  0.62137300  1
  O  O30  1  0.50328300  0.96432000  0.38202400  1
  O  O31  1  0.72477300  0.87424200  0.76942200  1
  O  O32  1  0.24276200  0.78519500  0.89777200  1
  O  O33  1  0.51959600  0.94864400  0.12137300  1
  O  O34  1  0.77522700  0.87424200  0.26942200  1
  O  O35  1  0.23652400  0.79193200  0.64640900  1
  O  O36  1  0.25723800  0.78519500  0.39777200  1
  O  O37  1  0.49798700  0.68145200  0.78436000  1
  O  O38  1  0.01932800  0.68443800  0.78631300  1
  O  O39  1  0.26347600  0.79193200  0.14640900  1
  O  O40  1  0.49005100  0.67455000  0.51588800  1
  O  O41  1  0.73329600  0.59527300  0.91746000  1
  O  O42  1  0.01289500  0.65065400  0.56071600  1
  O  O43  1  0.00201300  0.68145200  0.28436000  1
  O  O44  1  0.48067200  0.68443800  0.28631300  1
  O  O45  1  0.74595600  0.57089300  0.70077700  1
  O  O46  1  0.00994900  0.67455000  0.01588800  1
  O  O47  1  0.76670400  0.59527300  0.41746000  1
  O  O48  1  0.48710500  0.65065400  0.06071600  1
  O  O49  1  0.75404400  0.57089300  0.20077700  1
  O  O50  1  0.24595600  0.42910700  0.79922300  1
  O  O51  1  0.51289500  0.34934600  0.93928400  1
  O  O52  1  0.23329600  0.40472700  0.58254000  1
  O  O53  1  0.99005100  0.32545000  0.98411200  1
  O  O54  1  0.25404400  0.42910700  0.29922300  1
  O  O55  1  0.51932800  0.31556200  0.71368700  1
  O  O56  1  0.99798700  0.31854800  0.71564000  1
  O  O57  1  0.98710500  0.34934600  0.43928400  1
  O  O58  1  0.26670400  0.40472700  0.08254000  1
  O  O59  1  0.50994900  0.32545000  0.48411200  1
  O  O60  1  0.73652400  0.20806800  0.85359100  1
  O  O61  1  0.98067200  0.31556200  0.21368700  1
  O  O62  1  0.50201300  0.31854800  0.21564000  1
  O  O63  1  0.74276200  0.21480500  0.60222800  1
  O  O64  1  0.76347600  0.20806800  0.35359100  1
  O  O65  1  0.22477300  0.12575800  0.73057800  1
  O  O66  1  0.48040400  0.05135600  0.87862700  1
  O  O67  1  0.75723800  0.21480500  0.10222800  1
  O  O68  1  0.27522700  0.12575800  0.23057800  1
  O  O69  1  0.49671700  0.03568000  0.61797600  1
  O  O70  1  0.01959600  0.05135600  0.37862700  1
  O  O71  1  0.00328300  0.03568000  0.11797600  1
