# generated using pymatgen
data_LiNi(PO3)3
_symmetry_space_group_name_H-M   'P 1'
_cell_length_a   5.27134500
_cell_length_b   10.68633500
_cell_length_c   11.78919700
_cell_angle_alpha   90.00000000
_cell_angle_beta   90.00000000
_cell_angle_gamma   90.00000000
_symmetry_Int_Tables_number   1
_chemical_formula_structural   LiNi(PO3)3
_chemical_formula_sum   'Li4 Ni4 P12 O36'
_cell_volume   664.10148347
_cell_formula_units_Z   4
loop_
 _symmetry_equiv_pos_site_id
 _symmetry_equiv_pos_as_xyz
  1  'x, y, z'
loop_
 _atom_site_type_symbol
 _atom_site_label
 _atom_site_symmetry_multiplicity
 _atom_site_fract_x
 _atom_site_fract_y
 _atom_site_fract_z
 _atom_site_occupancy
  Li  Li0  1  0.10086800  0.11591200  0.08144700  1
  Li  Li1  1  0.60086800  0.38408800  0.91855300  1
  Li  Li2  1  0.89913200  0.61591200  0.41855300  1
  Li  Li3  1  0.39913200  0.88408800  0.58144700  1
  Ni  Ni4  1  0.59697300  0.03441600  0.86783500  1
  Ni  Ni5  1  0.09697300  0.46558400  0.13216500  1
  Ni  Ni6  1  0.40302700  0.53441600  0.63216500  1
  Ni  Ni7  1  0.90302700  0.96558400  0.36783500  1
  P  P8  1  0.87510300  0.07477600  0.62275300  1
  P  P9  1  0.39078300  0.15051800  0.36059600  1
  P  P10  1  0.08263900  0.19036400  0.82070700  1
  P  P11  1  0.58263900  0.30963600  0.17929300  1
  P  P12  1  0.89078300  0.34948200  0.63940400  1
  P  P13  1  0.37510300  0.42522400  0.37724700  1
  P  P14  1  0.12489700  0.57477600  0.87724700  1
  P  P15  1  0.60921700  0.65051800  0.13940400  1
  P  P16  1  0.91736100  0.69036400  0.67929300  1
  P  P17  1  0.41736100  0.80963600  0.32070700  1
  P  P18  1  0.10921700  0.84948200  0.86059600  1
  P  P19  1  0.62489700  0.92522400  0.12275300  1
  O  O20  1  0.50677100  0.01198400  0.03703400  1
  O  O21  1  0.62994900  0.03898600  0.67978600  1
  O  O22  1  0.54929900  0.06020500  0.42727400  1
  O  O23  1  0.08934000  0.08778500  0.72080800  1
  O  O24  1  0.12874400  0.11448700  0.32298100  1
  O  O25  1  0.84272100  0.18334900  0.89086900  1
  O  O26  1  0.33178000  0.18242100  0.88125300  1
  O  O27  1  0.56772500  0.18253400  0.25110200  1
  O  O28  1  0.87383400  0.21636400  0.57348200  1
  O  O29  1  0.37383400  0.28363600  0.42651800  1
  O  O30  1  0.06772500  0.31746600  0.74889800  1
  O  O31  1  0.83178000  0.31757900  0.11874700  1
  O  O32  1  0.34272100  0.31665100  0.10913100  1
  O  O33  1  0.62874400  0.38551400  0.67701900  1
  O  O34  1  0.58934000  0.41221500  0.27919200  1
  O  O35  1  0.04929900  0.43979500  0.57272600  1
  O  O36  1  0.12994900  0.46101400  0.32021400  1
  O  O37  1  0.00677100  0.48801600  0.96296600  1
  O  O38  1  0.49322900  0.51198400  0.46296600  1
  O  O39  1  0.37005100  0.53898600  0.82021400  1
  O  O40  1  0.45070100  0.56020500  0.07272600  1
  O  O41  1  0.91066000  0.58778500  0.77919200  1
  O  O42  1  0.87125600  0.61448700  0.17701900  1
  O  O43  1  0.15727900  0.68334900  0.60913100  1
  O  O44  1  0.66822000  0.68242100  0.61874700  1
  O  O45  1  0.43227500  0.68253400  0.24889800  1
  O  O46  1  0.12616600  0.71636400  0.92651800  1
  O  O47  1  0.62616600  0.78363600  0.07348200  1
  O  O48  1  0.93227500  0.81746600  0.75110200  1
  O  O49  1  0.16822000  0.81757900  0.38125300  1
  O  O50  1  0.65727900  0.81665100  0.39086900  1
  O  O51  1  0.37125600  0.88551300  0.82298100  1
  O  O52  1  0.41066000  0.91221500  0.22080800  1
  O  O53  1  0.95070100  0.93979500  0.92727400  1
  O  O54  1  0.87005100  0.96101400  0.17978600  1
  O  O55  1  0.99322900  0.98801600  0.53703400  1
