# generated using pymatgen
data_LiMnSiO4
_symmetry_space_group_name_H-M   'P 1'
_cell_length_a   10.04567000
_cell_length_b   4.82448300
_cell_length_c   6.01617623
_cell_angle_alpha   89.91118268
_cell_angle_beta   90.00000000
_cell_angle_gamma   90.00000000
_symmetry_Int_Tables_number   1
_chemical_formula_structural   LiMnSiO4
_chemical_formula_sum   'Li4 Mn4 Si4 O16'
_cell_volume   291.57461807
_cell_formula_units_Z   4
loop_
 _symmetry_equiv_pos_site_id
 _symmetry_equiv_pos_as_xyz
  1  'x, y, z'
loop_
 _atom_site_type_symbol
 _atom_site_label
 _atom_site_symmetry_multiplicity
 _atom_site_fract_x
 _atom_site_fract_y
 _atom_site_fract_z
 _atom_site_occupancy
  Li  Li0  1  0.30401300  0.75140100  0.25656200  1
  Li  Li1  1  0.78651500  0.26087500  0.24842300  1
  Li  Li2  1  0.28651500  0.73912500  0.75157700  1
  Li  Li3  1  0.80401300  0.24859900  0.74343800  1
  Mn  Mn4  1  0.02306000  0.72988400  0.99688700  1
  Mn  Mn5  1  0.07120800  0.23203900  0.49671800  1
  Mn  Mn6  1  0.57120800  0.76796100  0.50328200  1
  Mn  Mn7  1  0.52306000  0.27011600  0.00311300  1
  Si  Si8  1  0.20396700  0.18341400  0.01692300  1
  Si  Si9  1  0.89103200  0.68729100  0.48260600  1
  Si  Si10  1  0.39103200  0.31270900  0.51739400  1
  Si  Si11  1  0.70396700  0.81658600  0.98307700  1
  O  O12  1  0.35820400  0.06689000  0.02101600  1
  O  O13  1  0.19273900  0.52101300  0.00814000  1
  O  O14  1  0.62821800  0.98238500  0.19057800  1
  O  O15  1  0.13320200  0.03055100  0.23566000  1
  O  O16  1  0.95626700  0.53495100  0.25950400  1
  O  O17  1  0.23769800  0.43425600  0.50494300  1
  O  O18  1  0.90055600  0.02508400  0.48884700  1
  O  O19  1  0.47224000  0.47933600  0.31531600  1
  O  O20  1  0.97224000  0.52066400  0.68468400  1
  O  O21  1  0.40055600  0.97491600  0.51115300  1
  O  O22  1  0.73769800  0.56574400  0.49505700  1
  O  O23  1  0.45626700  0.46504900  0.74049600  1
  O  O24  1  0.63320200  0.96944900  0.76434000  1
  O  O25  1  0.12821800  0.01761500  0.80942200  1
  O  O26  1  0.69273900  0.47898700  0.99186000  1
  O  O27  1  0.85820400  0.93311000  0.97898400  1
