# generated using pymatgen
data_Li5Mn6(BO3)6
_symmetry_space_group_name_H-M   'P 1'
_cell_length_a   8.81138800
_cell_length_b   8.87269035
_cell_length_c   10.47346944
_cell_angle_alpha   98.84830475
_cell_angle_beta   98.50440655
_cell_angle_gamma   107.88670603
_symmetry_Int_Tables_number   1
_chemical_formula_structural   Li5Mn6(BO3)6
_chemical_formula_sum   'Li10 Mn12 B12 O36'
_cell_volume   753.21246109
_cell_formula_units_Z   2
loop_
 _symmetry_equiv_pos_site_id
 _symmetry_equiv_pos_as_xyz
  1  'x, y, z'
loop_
 _atom_site_type_symbol
 _atom_site_label
 _atom_site_symmetry_multiplicity
 _atom_site_fract_x
 _atom_site_fract_y
 _atom_site_fract_z
 _atom_site_occupancy
  Li  Li0  1  0.20745700  0.91372500  0.18924600  1
  Li  Li1  1  0.90630500  0.18788000  0.20587200  1
  Li  Li2  1  0.50580400  0.52274800  0.22731600  1
  Li  Li3  1  0.45543100  0.15257100  0.43875600  1
  Li  Li4  1  0.15252600  0.43720100  0.45258100  1
  Li  Li5  1  0.70385800  0.40586500  0.69003000  1
  Li  Li6  1  0.39946000  0.68357000  0.70492600  1
  Li  Li7  1  0.01361200  0.02882200  0.73380000  1
  Li  Li8  1  0.65989300  0.93866100  0.95330000  1
  Li  Li9  1  0.25889000  0.27885900  0.98123600  1
  Mn  Mn10  1  0.82010400  0.80552700  0.18963100  1
  Mn  Mn11  1  0.52363700  0.16745300  0.15192400  1
  Mn  Mn12  1  0.14649600  0.53765800  0.15574400  1
  Mn  Mn13  1  0.76933600  0.42527900  0.41045900  1
  Mn  Mn14  1  0.41809900  0.76744400  0.41430400  1
  Mn  Mn15  1  0.06887300  0.06017300  0.43649000  1
  Mn  Mn16  1  0.01543300  0.66540200  0.65994100  1
  Mn  Mn17  1  0.65502300  0.02241100  0.66001800  1
  Mn  Mn18  1  0.32311100  0.30773800  0.68500700  1
  Mn  Mn19  1  0.27176000  0.90884900  0.90540100  1
  Mn  Mn20  1  0.89931100  0.27756100  0.90915200  1
  Mn  Mn21  1  0.59101600  0.56426200  0.92627900  1
  B  B22  1  0.46404700  0.79169300  0.12400400  1
  B  B23  1  0.79741800  0.47166800  0.13342900  1
  B  B24  1  0.00286700  0.00608500  0.00507900  1
  B  B25  1  0.24626200  0.25372500  0.25094500  1
  B  B26  1  0.70719200  0.04491400  0.36281700  1
  B  B27  1  0.04124700  0.70251500  0.36694600  1
  B  B28  1  0.48983500  0.48715600  0.49900200  1
  B  B29  1  0.29020600  0.95205400  0.62279800  1
  B  B30  1  0.95767400  0.29289300  0.62480100  1
  B  B31  1  0.74416200  0.75278300  0.74917800  1
  B  B32  1  0.21911900  0.54099400  0.88177900  1
  B  B33  1  0.54221300  0.20654500  0.87754600  1
  O  O34  1  0.87362900  0.98437500  0.07305000  1
  O  O35  1  0.47903900  0.91559700  0.05811400  1
  O  O36  1  0.10533700  0.91817800  0.01902000  1
  O  O37  1  0.81496000  0.60478100  0.07373400  1
  O  O38  1  0.57428500  0.70746800  0.12710600  1
  O  O39  1  0.90944400  0.38884700  0.12416900  1
  O  O40  1  0.33652000  0.74738200  0.19171900  1
  O  O41  1  0.67334000  0.42325500  0.19973300  1
  O  O42  1  0.27517000  0.36925700  0.17201700  1
  O  O43  1  0.81260900  0.95671500  0.34381800  1
  O  O44  1  0.04337500  0.82559700  0.29557800  1
  O  O45  1  0.72229600  0.17540200  0.30276700  1
  O  O46  1  0.33972500  0.15200600  0.25932400  1
  O  O47  1  0.94010500  0.66859200  0.45184900  1
  O  O48  1  0.14754800  0.61349000  0.34618900  1
  O  O49  1  0.51841900  0.58948800  0.41239500  1
  O  O50  1  0.12275300  0.23827000  0.32194000  1
  O  O51  1  0.59361300  0.00476900  0.44094100  1
  O  O52  1  0.97413300  0.41392200  0.55368800  1
  O  O53  1  0.57826300  0.38155200  0.51113100  1
  O  O54  1  0.39575500  0.86358200  0.61148800  1
  O  O55  1  0.36877400  0.48476800  0.57231500  1
  O  O56  1  0.79481900  0.88224600  0.68971900  1
  O  O57  1  0.29872300  0.07465500  0.55227600  1
  O  O58  1  0.81537200  0.63413800  0.74390900  1
  O  O59  1  0.83858100  0.26318600  0.70018700  1
  O  O60  1  0.17824300  0.91994600  0.70420500  1
  O  O61  1  0.05887700  0.19916200  0.62185500  1
  O  O62  1  0.61636300  0.74155700  0.81854000  1
  O  O63  1  0.21996900  0.65830200  0.80948400  1
  O  O64  1  0.55607900  0.32992800  0.80762500  1
  O  O65  1  0.32455000  0.45399400  0.87418300  1
  O  O66  1  0.64949900  0.12045300  0.87171900  1
  O  O67  1  0.42327700  0.17077400  0.95253400  1
  O  O68  1  0.10701400  0.50190700  0.96440400  1
  O  O69  1  0.03098900  0.12253200  0.92659700  1
