# generated using pymatgen
data_LiMn(PO3)4
_symmetry_space_group_name_H-M   'P 1'
_cell_length_a   13.05249600
_cell_length_b   7.37103600
_cell_length_c   11.94926887
_cell_angle_alpha   52.39469594
_cell_angle_beta   90.00000000
_cell_angle_gamma   90.00000000
_symmetry_Int_Tables_number   1
_chemical_formula_structural   LiMn(PO3)4
_chemical_formula_sum   'Li4 Mn4 P16 O48'
_cell_volume   910.78621562
_cell_formula_units_Z   4
loop_
 _symmetry_equiv_pos_site_id
 _symmetry_equiv_pos_as_xyz
  1  'x, y, z'
loop_
 _atom_site_type_symbol
 _atom_site_label
 _atom_site_symmetry_multiplicity
 _atom_site_fract_x
 _atom_site_fract_y
 _atom_site_fract_z
 _atom_site_occupancy
  Li  Li0  1  0.21245900  0.95200000  0.02552500  1
  Li  Li1  1  0.71245900  0.04800000  0.47447500  1
  Li  Li2  1  0.28754100  0.95200000  0.52552500  1
  Li  Li3  1  0.78754100  0.04800000  0.97447500  1
  Mn  Mn4  1  0.28894800  0.56470300  0.43109100  1
  Mn  Mn5  1  0.78894800  0.43529700  0.06890900  1
  Mn  Mn6  1  0.21105200  0.56470300  0.93109100  1
  Mn  Mn7  1  0.71105200  0.43529700  0.56890900  1
  P  P8  1  0.62208100  0.81970600  0.25590800  1
  P  P9  1  0.12659800  0.41759200  0.69592600  1
  P  P10  1  0.90739700  0.46037100  0.70855200  1
  P  P11  1  0.90211000  0.06473800  0.22985300  1
  P  P12  1  0.40211000  0.93526200  0.27014700  1
  P  P13  1  0.40739700  0.53962900  0.79144800  1
  P  P14  1  0.62659800  0.58240800  0.80407400  1
  P  P15  1  0.12208100  0.18029400  0.24409200  1
  P  P16  1  0.87791900  0.81970600  0.75590800  1
  P  P17  1  0.37340200  0.41759200  0.19592600  1
  P  P18  1  0.59260300  0.46037100  0.20855200  1
  P  P19  1  0.59789000  0.06473800  0.72985300  1
  P  P20  1  0.09789000  0.93526200  0.77014700  1
  P  P21  1  0.09260300  0.53962900  0.29144800  1
  P  P22  1  0.87340200  0.58240800  0.30407400  1
  P  P23  1  0.37791900  0.18029400  0.74409200  1
  O  O24  1  0.87784600  0.81318900  0.29402400  1
  O  O25  1  0.89546900  0.21210800  0.82588100  1
  O  O26  1  0.41606600  0.39821700  0.73126700  1
  O  O27  1  0.32506000  0.84062500  0.22027500  1
  O  O28  1  0.69378800  0.96688500  0.13655000  1
  O  O29  1  0.13570400  0.35543600  0.83929900  1
  O  O30  1  0.64988500  0.73490500  0.40316900  1
  O  O31  1  0.89269100  0.23730300  0.06783100  1
  O  O32  1  0.51432000  0.96036000  0.21398200  1
  O  O33  1  0.01554400  0.52697300  0.62581000  1
  O  O34  1  0.20631000  0.56690400  0.58485300  1
  O  O35  1  0.32802400  0.42611300  0.91012600  1
  O  O36  1  0.82802400  0.57388700  0.58987400  1
  O  O37  1  0.01432000  0.03964000  0.28601800  1
  O  O38  1  0.70631000  0.43309600  0.91514700  1
  O  O39  1  0.39269100  0.76269700  0.43216900  1
  O  O40  1  0.51554400  0.47302700  0.87419000  1
  O  O41  1  0.14988500  0.26509500  0.09683100  1
  O  O42  1  0.63570400  0.64456400  0.66070100  1
  O  O43  1  0.19378800  0.03311500  0.36345000  1
  O  O44  1  0.82506000  0.15937500  0.27972500  1
  O  O45  1  0.91606600  0.60178300  0.76873300  1
  O  O46  1  0.37784600  0.18681100  0.20597600  1
  O  O47  1  0.39546900  0.78789200  0.67411900  1
  O  O48  1  0.60453100  0.21210800  0.32588100  1
  O  O49  1  0.62215400  0.81318900  0.79402400  1
  O  O50  1  0.08393400  0.39821700  0.23126700  1
  O  O51  1  0.17494000  0.84062500  0.72027500  1
  O  O52  1  0.80621200  0.96688500  0.63655000  1
  O  O53  1  0.36429600  0.35543600  0.33929900  1
  O  O54  1  0.85011500  0.73490500  0.90316900  1
  O  O55  1  0.48445600  0.52697300  0.12581000  1
  O  O56  1  0.60730900  0.23730300  0.56783100  1
  O  O57  1  0.29369000  0.56690400  0.08485300  1
  O  O58  1  0.98568000  0.96036000  0.71398200  1
  O  O59  1  0.17197600  0.42611300  0.41012600  1
  O  O60  1  0.67197600  0.57388700  0.08987400  1
  O  O61  1  0.79369000  0.43309600  0.41514700  1
  O  O62  1  0.98445600  0.47302700  0.37419000  1
  O  O63  1  0.48568000  0.03964000  0.78601800  1
  O  O64  1  0.10730900  0.76269700  0.93216900  1
  O  O65  1  0.35011500  0.26509500  0.59683100  1
  O  O66  1  0.86429600  0.64456400  0.16070100  1
  O  O67  1  0.30621200  0.03311500  0.86345000  1
  O  O68  1  0.67494000  0.15937500  0.77972500  1
  O  O69  1  0.58393400  0.60178300  0.26873300  1
  O  O70  1  0.10453100  0.78789200  0.17411900  1
  O  O71  1  0.12215400  0.18681100  0.70597600  1
