# generated using pymatgen
data_LiNi(PO3)3
_symmetry_space_group_name_H-M   'P 1'
_cell_length_a   6.41977543
_cell_length_b   9.65954200
_cell_length_c   6.41991608
_cell_angle_alpha   89.99923069
_cell_angle_beta   59.99978614
_cell_angle_gamma   90.00041886
_symmetry_Int_Tables_number   1
_chemical_formula_structural   LiNi(PO3)3
_chemical_formula_sum   'Li2 Ni2 P6 O18'
_cell_volume   344.77472270
_cell_formula_units_Z   2
loop_
 _symmetry_equiv_pos_site_id
 _symmetry_equiv_pos_as_xyz
  1  'x, y, z'
loop_
 _atom_site_type_symbol
 _atom_site_label
 _atom_site_symmetry_multiplicity
 _atom_site_fract_x
 _atom_site_fract_y
 _atom_site_fract_z
 _atom_site_occupancy
  Li  Li0  1  0.66682200  0.49998400  0.66675500  1
  Li  Li1  1  0.66642500  0.00002000  0.66675400  1
  Ni  Ni2  1  0.33331300  0.50000800  0.33335900  1
  Ni  Ni3  1  0.33329600  0.00002300  0.33342700  1
  P  P4  1  0.71810000  0.75004300  0.03262000  1
  P  P5  1  0.71804900  0.24994700  0.24928800  1
  P  P6  1  0.24930000  0.24995300  0.03263500  1
  P  P7  1  0.03263700  0.75003300  0.24927500  1
  P  P8  1  0.24929900  0.75003800  0.71807000  1
  P  P9  1  0.03265100  0.24996300  0.71803200  1
  O  O10  1  0.97209700  0.24994900  0.23863800  1
  O  O11  1  0.78926300  0.75006400  0.23863700  1
  O  O12  1  0.97208700  0.75008100  0.78925300  1
  O  O13  1  0.78926200  0.24992000  0.97208800  1
  O  O14  1  0.23866400  0.24996400  0.78925600  1
  O  O15  1  0.23866300  0.75004000  0.97207300  1
  O  O16  1  0.59613400  0.88454700  0.04062300  1
  O  O17  1  0.59618300  0.61555800  0.04059200  1
  O  O18  1  0.59612600  0.38444500  0.36319000  1
  O  O19  1  0.59614100  0.11541400  0.36324100  1
  O  O20  1  0.36323500  0.11541900  0.04060200  1
  O  O21  1  0.36323800  0.38444800  0.04063000  1
  O  O22  1  0.04064600  0.88454400  0.36319500  1
  O  O23  1  0.04062600  0.61555000  0.36322100  1
  O  O24  1  0.36322300  0.61556800  0.59609500  1
  O  O25  1  0.36324300  0.88456600  0.59619200  1
  O  O26  1  0.04060300  0.38447500  0.59615600  1
  O  O27  1  0.04067500  0.11543600  0.59610500  1
