# generated using pymatgen
data_Li4Ti3V2Cu3O16
_symmetry_space_group_name_H-M   'P 1'
_cell_length_a   5.91572716
_cell_length_b   5.91572716
_cell_length_c   9.73557506
_cell_angle_alpha   89.11357084
_cell_angle_beta   89.11357084
_cell_angle_gamma   60.03512918
_symmetry_Int_Tables_number   1
_chemical_formula_structural   Li4Ti3V2Cu3O16
_chemical_formula_sum   'Li4 Ti3 V2 Cu3 O16'
_cell_volume   295.11603464
_cell_formula_units_Z   1
loop_
 _symmetry_equiv_pos_site_id
 _symmetry_equiv_pos_as_xyz
  1  'x, y, z'
loop_
 _atom_site_type_symbol
 _atom_site_label
 _atom_site_symmetry_multiplicity
 _atom_site_fract_x
 _atom_site_fract_y
 _atom_site_fract_z
 _atom_site_occupancy
  Li  Li0  1  0.67336400  0.67336400  0.09350400  1
  Li  Li1  1  0.99301400  0.99301400  0.01621000  1
  Li  Li2  1  0.99691700  0.99691700  0.50635400  1
  Li  Li3  1  0.33538400  0.33538400  0.59381600  1
  Ti  Ti4  1  0.34543900  0.84605200  0.77754600  1
  Ti  Ti5  1  0.84605200  0.34543900  0.77754600  1
  Ti  Ti6  1  0.18153200  0.18153200  0.26292400  1
  V  V7  1  0.66166400  0.66166400  0.50083500  1
  V  V8  1  0.36162600  0.36162600  0.01381700  1
  Cu  Cu9  1  0.82873300  0.82873300  0.79105800  1
  Cu  Cu10  1  0.17263300  0.66215800  0.29682300  1
  Cu  Cu11  1  0.66215800  0.17263300  0.29682300  1
  O  O12  1  0.35038800  0.82669700  0.41327400  1
  O  O13  1  0.51715700  0.51715700  0.66582100  1
  O  O14  1  0.66194100  0.66194100  0.89080500  1
  O  O15  1  0.99506700  0.99506700  0.69722300  1
  O  O16  1  0.00038300  0.00038300  0.21012800  1
  O  O17  1  0.82669700  0.35038800  0.41327400  1
  O  O18  1  0.49601700  0.96272700  0.65240600  1
  O  O19  1  0.96272700  0.49601700  0.65240600  1
  O  O20  1  0.15995300  0.15995300  0.89512000  1
  O  O21  1  0.81748200  0.81748200  0.42986400  1
  O  O22  1  0.03654800  0.47086900  0.14959100  1
  O  O23  1  0.47086900  0.03654800  0.14959100  1
  O  O24  1  0.32927000  0.32927000  0.38829500  1
  O  O25  1  0.18150800  0.65085500  0.91189100  1
  O  O26  1  0.48395300  0.48395300  0.13331300  1
  O  O27  1  0.65085500  0.18150800  0.91189100  1
