# generated using pymatgen
data_LiVCrP2(O4F)2
_symmetry_space_group_name_H-M   'P 1'
_cell_length_a   6.91362208
_cell_length_b   7.91504669
_cell_length_c   7.33573115
_cell_angle_alpha   92.69456365
_cell_angle_beta   117.76675143
_cell_angle_gamma   87.81257618
_symmetry_Int_Tables_number   1
_chemical_formula_structural   LiVCrP2(O4F)2
_chemical_formula_sum   'Li2 V2 Cr2 P4 O16 F4'
_cell_volume   354.74712806
_cell_formula_units_Z   2
loop_
 _symmetry_equiv_pos_site_id
 _symmetry_equiv_pos_as_xyz
  1  'x, y, z'
loop_
 _atom_site_type_symbol
 _atom_site_label
 _atom_site_symmetry_multiplicity
 _atom_site_fract_x
 _atom_site_fract_y
 _atom_site_fract_z
 _atom_site_occupancy
  Li  Li0  1  0.74732800  0.82105500  0.18022400  1
  Li  Li1  1  0.24735000  0.32103300  0.18026700  1
  V  V2  1  0.49681600  0.49966600  0.99383500  1
  V  V3  1  0.99706200  0.99976800  0.99410300  1
  Cr  Cr4  1  0.00255500  0.49824600  0.50251000  1
  Cr  Cr5  1  0.50275300  0.99810900  0.50258900  1
  P  P6  1  0.27555600  0.84179200  0.75600800  1
  P  P7  1  0.77564700  0.34175100  0.75609200  1
  P  P8  1  0.72429900  0.16253100  0.24369800  1
  P  P9  1  0.22428400  0.66251000  0.24368900  1
  O  O10  1  0.19549400  0.93295300  0.90729100  1
  O  O11  1  0.69544800  0.43287500  0.90726000  1
  O  O12  1  0.58810400  0.23548500  0.59741200  1
  O  O13  1  0.08791900  0.73564000  0.59723200  1
  O  O14  1  0.34211400  0.98291700  0.66450900  1
  O  O15  1  0.84206200  0.48288500  0.66452000  1
  O  O16  1  0.51813300  0.27689800  0.12532500  1
  O  O17  1  0.01815400  0.77691000  0.12530600  1
  O  O18  1  0.47876300  0.73247700  0.90196400  1
  O  O19  1  0.97896000  0.23261800  0.90208200  1
  O  O20  1  0.66547900  0.01309400  0.33611100  1
  O  O21  1  0.16534600  0.51311100  0.33605500  1
  O  O22  1  0.42093300  0.76360600  0.39538200  1
  O  O23  1  0.92089800  0.26363500  0.39537000  1
  O  O24  1  0.78903600  0.06397100  0.08635200  1
  O  O25  1  0.28888700  0.56388900  0.08633100  1
  F  F26  1  0.23395700  0.09094400  0.26005000  1
  F  F27  1  0.73385200  0.59100400  0.25990600  1
  F  F28  1  0.76732000  0.91198000  0.73844900  1
  F  F29  1  0.26702700  0.41204800  0.73796500  1
