# generated using pymatgen
data_LiV4OF11
_symmetry_space_group_name_H-M   'P 1'
_cell_length_a   5.23672100
_cell_length_b   5.54141036
_cell_length_c   17.22778794
_cell_angle_alpha   83.63258119
_cell_angle_beta   82.16091488
_cell_angle_gamma   62.11513943
_symmetry_Int_Tables_number   1
_chemical_formula_structural   LiV4OF11
_chemical_formula_sum   'Li2 V8 O2 F22'
_cell_volume   437.11931013
_cell_formula_units_Z   2
loop_
 _symmetry_equiv_pos_site_id
 _symmetry_equiv_pos_as_xyz
  1  'x, y, z'
loop_
 _atom_site_type_symbol
 _atom_site_label
 _atom_site_symmetry_multiplicity
 _atom_site_fract_x
 _atom_site_fract_y
 _atom_site_fract_z
 _atom_site_occupancy
  Li  Li0  1  0.48332800  0.34375500  0.70792800  1
  Li  Li1  1  0.51667200  0.65624500  0.29207200  1
  V  V2  1  0.78177900  0.73219100  0.75474300  1
  V  V3  1  0.35896300  0.38619300  0.87344400  1
  V  V4  1  0.87137400  0.87915000  0.37637300  1
  V  V5  1  0.50000000  0.50000000  0.50000000  1
  V  V6  1  0.00000000  0.00000000  0.00000000  1
  V  V7  1  0.64103700  0.61380700  0.12655600  1
  V  V8  1  0.21822100  0.26780900  0.24525700  1
  V  V9  1  0.12862600  0.12085000  0.62362700  1
  O  O10  1  0.15236600  0.53089700  0.78368400  1
  O  O11  1  0.84763400  0.46910300  0.21631600  1
  F  F12  1  0.07684800  0.68372400  0.94030400  1
  F  F13  1  0.17961400  0.57601500  0.31493000  1
  F  F14  1  0.66345300  0.09492000  0.80165100  1
  F  F15  1  0.10679000  0.70330700  0.46557600  1
  F  F16  1  0.42176400  0.39196600  0.16096800  1
  F  F17  1  0.61332000  0.20722600  0.96047400  1
  F  F18  1  0.34820400  0.34599800  0.59727800  1
  F  F19  1  0.62509100  0.03869600  0.29087100  1
  F  F20  1  0.83590100  0.84783500  0.09017100  1
  F  F21  1  0.57823600  0.60803400  0.83903200  1
  F  F22  1  0.58661300  0.17770700  0.44191700  1
  F  F23  1  0.92315200  0.31627600  0.05969600  1
  F  F24  1  0.90250900  0.91618200  0.65693500  1
  F  F25  1  0.65179600  0.65400200  0.40272200  1
  F  F26  1  0.16409900  0.15216500  0.90982900  1
  F  F27  1  0.89321000  0.29669300  0.53442400  1
  F  F28  1  0.09749100  0.08381800  0.34306500  1
  F  F29  1  0.38668000  0.79277400  0.03952600  1
  F  F30  1  0.82038600  0.42398500  0.68507000  1
  F  F31  1  0.33654700  0.90508000  0.19834900  1
  F  F32  1  0.41338700  0.82229300  0.55808300  1
  F  F33  1  0.37490900  0.96130400  0.70912900  1
