# generated using pymatgen
data_Li3V3P8O29
_symmetry_space_group_name_H-M   'P 1'
_cell_length_a   9.74030285
_cell_length_b   9.74030285
_cell_length_c   14.31226636
_cell_angle_alpha   89.78510455
_cell_angle_beta   89.78510455
_cell_angle_gamma   60.10153856
_symmetry_Int_Tables_number   1
_chemical_formula_structural   Li3V3P8O29
_chemical_formula_sum   'Li6 V6 P16 O58'
_cell_volume   1177.12703386
_cell_formula_units_Z   2
loop_
 _symmetry_equiv_pos_site_id
 _symmetry_equiv_pos_as_xyz
  1  'x, y, z'
loop_
 _atom_site_type_symbol
 _atom_site_label
 _atom_site_symmetry_multiplicity
 _atom_site_fract_x
 _atom_site_fract_y
 _atom_site_fract_z
 _atom_site_occupancy
  Li  Li0  1  0.90741000  0.32615200  0.44110700  1
  Li  Li1  1  0.76681100  0.32773700  0.94160900  1
  Li  Li2  1  0.32615200  0.90741000  0.94110700  1
  Li  Li3  1  0.32773700  0.76681100  0.44160900  1
  Li  Li4  1  0.98465800  0.95984100  0.99663900  1
  Li  Li5  1  0.95984100  0.98465800  0.49663900  1
  V  V6  1  0.56414700  0.43497700  0.74786300  1
  V  V7  1  0.43497700  0.56414700  0.24786300  1
  V  V8  1  0.56696100  0.99708700  0.25333300  1
  V  V9  1  0.44044700  0.00263800  0.74828200  1
  V  V10  1  0.99708700  0.56696100  0.75333300  1
  V  V11  1  0.00263800  0.44044700  0.24828200  1
  P  P12  1  0.91570100  0.78327900  0.16029100  1
  P  P13  1  0.78327900  0.91570100  0.66029100  1
  P  P14  1  0.91445000  0.31262100  0.65615000  1
  P  P15  1  0.66434500  0.66515600  0.86845600  1
  P  P16  1  0.66515600  0.66434500  0.36845600  1
  P  P17  1  0.77635600  0.31477500  0.15711000  1
  P  P18  1  0.69407200  0.22035000  0.33712200  1
  P  P19  1  0.31262100  0.91445000  0.15615000  1
  P  P20  1  0.69654200  0.08493600  0.84338300  1
  P  P21  1  0.31477500  0.77635600  0.65711000  1
  P  P22  1  0.22035000  0.69407200  0.83712200  1
  P  P23  1  0.32931700  0.33758900  0.63440600  1
  P  P24  1  0.33758900  0.32931700  0.13440600  1
  P  P25  1  0.08493600  0.69654200  0.34338300  1
  P  P26  1  0.21967000  0.08554800  0.33710200  1
  P  P27  1  0.08554800  0.21967000  0.83710200  1
  O  O28  1  0.00858100  0.79195300  0.42743100  1
  O  O29  1  0.91509100  0.74042700  0.67143000  1
  O  O30  1  0.79195300  0.00858100  0.92743100  1
  O  O31  1  0.74042700  0.91509100  0.17143000  1
  O  O32  1  0.92127900  0.61991300  0.17310800  1
  O  O33  1  0.81162000  0.66597900  0.82327600  1
  O  O34  1  0.91350100  0.46977700  0.67349800  1
  O  O35  1  0.99096000  0.20943100  0.91594900  1
  O  O36  1  0.91477900  0.34852000  0.17241300  1
  O  O37  1  0.66597900  0.81162000  0.32327600  1
  O  O38  1  0.61991300  0.92127900  0.67310800  1
  O  O39  1  0.81471300  0.51442300  0.32787300  1
  O  O40  1  0.66377000  0.65843200  0.97232100  1
  O  O41  1  0.65843200  0.66377000  0.47232100  1
  O  O42  1  0.66916000  0.51313700  0.82628300  1
  O  O43  1  0.46977700  0.91350100  0.17349800  1
  O  O44  1  0.51442300  0.81471300  0.82787300  1
  O  O45  1  0.74267500  0.34278500  0.67230700  1
  O  O46  1  0.79114100  0.19766500  0.24015900  1
  O  O47  1  0.79828000  0.20666200  0.41696100  1
  O  O48  1  0.78513600  0.24034200  0.06531100  1
  O  O49  1  0.61847300  0.47258600  0.17423700  1
  O  O50  1  0.51313700  0.66916000  0.32628300  1
  O  O51  1  0.65310900  0.26254400  0.83711700  1
  O  O52  1  0.47258600  0.61847300  0.67423700  1
  O  O53  1  0.34852000  0.91477900  0.67241300  1
  O  O54  1  0.79957700  0.00412500  0.75073000  1
  O  O55  1  0.79876600  0.99265600  0.57540000  1
  O  O56  1  0.20943100  0.99096000  0.41594900  1
  O  O57  1  0.65502400  0.08445400  0.33510700  1
  O  O58  1  0.53872300  0.38105200  0.32718600  1
  O  O59  1  0.34278500  0.74267500  0.17230700  1
  O  O60  1  0.47796600  0.33753800  0.67934000  1
  O  O61  1  0.38105200  0.53872300  0.82718600  1
  O  O62  1  0.20666200  0.79828000  0.91696100  1
  O  O63  1  0.24034200  0.78513600  0.56531100  1
  O  O64  1  0.19766500  0.79114100  0.74015900  1
  O  O65  1  0.26254400  0.65310900  0.33711700  1
  O  O66  1  0.48096000  0.18346900  0.18065000  1
  O  O67  1  0.54143400  0.07741000  0.82929800  1
  O  O68  1  0.33753800  0.47796600  0.17934000  1
  O  O69  1  0.33428000  0.33140500  0.03122200  1
  O  O70  1  0.33140500  0.33428000  0.53122200  1
  O  O71  1  0.18346900  0.48096000  0.68065000  1
  O  O72  1  0.38113000  0.08027300  0.32754500  1
  O  O73  1  0.33464000  0.18660900  0.68144200  1
  O  O74  1  0.08445400  0.65502400  0.83510700  1
  O  O75  1  0.00412500  0.79957700  0.25073000  1
  O  O76  1  0.99265600  0.79876600  0.07540000  1
  O  O77  1  0.07741000  0.54143400  0.32929800  1
  O  O78  1  0.18660900  0.33464000  0.18144200  1
  O  O79  1  0.08027300  0.38113100  0.82754500  1
  O  O80  1  0.26097600  0.08325400  0.83901300  1
  O  O81  1  0.23710600  0.97753400  0.06399200  1
  O  O82  1  0.19434900  0.01761600  0.23885400  1
  O  O83  1  0.08325400  0.26097600  0.33901300  1
  O  O84  1  0.97753400  0.23710600  0.56399200  1
  O  O85  1  0.01761600  0.19434900  0.73885400  1
