# generated using pymatgen
data_Li9Nb7V12O48
_symmetry_space_group_name_H-M   'P 1'
_cell_length_a   5.20825000
_cell_length_b   10.54542131
_cell_length_c   17.64956896
_cell_angle_alpha   90.49048089
_cell_angle_beta   90.38735460
_cell_angle_gamma   90.16229646
_symmetry_Int_Tables_number   1
_chemical_formula_structural   Li9Nb7V12O48
_chemical_formula_sum   'Li9 Nb7 V12 O48'
_cell_volume   969.30891793
_cell_formula_units_Z   1
loop_
 _symmetry_equiv_pos_site_id
 _symmetry_equiv_pos_as_xyz
  1  'x, y, z'
loop_
 _atom_site_type_symbol
 _atom_site_label
 _atom_site_symmetry_multiplicity
 _atom_site_fract_x
 _atom_site_fract_y
 _atom_site_fract_z
 _atom_site_occupancy
  Li  Li0  1  0.09172400  0.75410200  0.74980200  1
  Li  Li1  1  0.25186500  0.57562300  0.03375300  1
  Li  Li2  1  0.25578300  0.41687900  0.52754000  1
  Li  Li3  1  0.25597000  0.08311900  0.52859800  1
  Li  Li4  1  0.24624300  0.73763000  0.19953000  1
  Li  Li5  1  0.74985100  0.24648400  0.80874400  1
  Li  Li6  1  0.74437100  0.08067000  0.96997700  1
  Li  Li7  1  0.75641500  0.74583900  0.29430400  1
  Li  Li8  1  0.90923100  0.25198000  0.25279700  1
  Nb  Nb9  1  0.23535400  0.25316700  0.70024500  1
  Nb  Nb10  1  0.22924800  0.93255700  0.03147700  1
  Nb  Nb11  1  0.41208300  0.25224000  0.24633300  1
  Nb  Nb12  1  0.58419000  0.74942200  0.75134000  1
  Nb  Nb13  1  0.76487800  0.93003500  0.47574500  1
  Nb  Nb14  1  0.76327200  0.57056200  0.47705300  1
  Nb  Nb15  1  0.77379800  0.42183800  0.97090000  1
  V  V16  1  0.23272200  0.25156100  0.05652700  1
  V  V17  1  0.22956400  0.96898300  0.34097000  1
  V  V18  1  0.22541800  0.53166500  0.34419400  1
  V  V19  1  0.28290500  0.46961600  0.84030300  1
  V  V20  1  0.28234200  0.03055500  0.84310000  1
  V  V21  1  0.30132400  0.75174200  0.55778700  1
  V  V22  1  0.71208100  0.24978600  0.44270500  1
  V  V23  1  0.71826800  0.53157400  0.15763000  1
  V  V24  1  0.71527500  0.96512800  0.16464600  1
  V  V25  1  0.78460100  0.46955100  0.66053900  1
  V  V26  1  0.77762400  0.03074300  0.66113500  1
  V  V27  1  0.76883400  0.74971900  0.94393800  1
  O  O28  1  0.05482800  0.76418800  0.00155300  1
  O  O29  1  0.06360300  0.37500200  0.62861100  1
  O  O30  1  0.06841200  0.12484300  0.63259000  1
  O  O31  1  0.07272100  0.35946300  0.77766200  1
  O  O32  1  0.09082800  0.12414500  0.78199100  1
  O  O33  1  0.06287400  0.88228100  0.52993300  1
  O  O34  1  0.06161800  0.61916900  0.53144500  1
  O  O35  1  0.10185100  0.99596700  0.92416100  1
  O  O36  1  0.06564900  0.49900400  0.92600600  1
  O  O37  1  0.17435500  0.24829200  0.16015300  1
  O  O38  1  0.17512400  0.38268500  0.29704300  1
  O  O39  1  0.17603800  0.11795800  0.29711500  1
  O  O40  1  0.36482600  0.88559300  0.79613100  1
  O  O41  1  0.36743900  0.62564500  0.79483300  1
  O  O42  1  0.37353800  0.75277000  0.66136600  1
  O  O43  1  0.42165100  0.50724300  0.42485100  1
  O  O44  1  0.42567000  0.99104300  0.42224800  1
  O  O45  1  0.40130600  0.10525500  0.03384100  1
  O  O46  1  0.42790100  0.38019200  0.03166300  1
  O  O47  1  0.40849600  0.87959600  0.28331000  1
  O  O48  1  0.39872700  0.62741100  0.29136800  1
  O  O49  1  0.42504300  0.88484500  0.11811700  1
  O  O50  1  0.45276700  0.61237800  0.13155900  1
  O  O51  1  0.45361200  0.24990600  0.49967000  1
  O  O52  1  0.59459700  0.74973400  0.48578200  1
  O  O53  1  0.58134100  0.38496200  0.88010100  1
  O  O54  1  0.54882200  0.11038800  0.86934800  1
  O  O55  1  0.54129800  0.37186900  0.70718100  1
  O  O56  1  0.55145900  0.13550100  0.70476000  1
  O  O57  1  0.56840900  0.87382400  0.96589000  1
  O  O58  1  0.59908900  0.61356500  0.96514600  1
  O  O59  1  0.59851400  0.98598400  0.57090000  1
  O  O60  1  0.59870200  0.51452100  0.57275200  1
  O  O61  1  0.63182800  0.25014600  0.34568000  1
  O  O62  1  0.63845200  0.38319800  0.20852100  1
  O  O63  1  0.64178400  0.12409200  0.20669800  1
  O  O64  1  0.83671800  0.88303000  0.70635700  1
  O  O65  1  0.83663900  0.61934900  0.70720600  1
  O  O66  1  0.83098900  0.75263300  0.84527900  1
  O  O67  1  0.89873500  0.49338800  0.07407200  1
  O  O68  1  0.92710300  0.99713100  0.07637000  1
  O  O69  1  0.89602200  0.38850300  0.46375200  1
  O  O70  1  0.89708400  0.11235000  0.46377700  1
  O  O71  1  0.91878000  0.87530100  0.21336300  1
  O  O72  1  0.90767700  0.62232000  0.21340400  1
  O  O73  1  0.94011000  0.89219600  0.37509300  1
  O  O74  1  0.93421600  0.60790300  0.37697100  1
  O  O75  1  0.93752100  0.26046700  0.99276300  1
