# generated using pymatgen
data_LiCo3(SiO4)2
_symmetry_space_group_name_H-M   'P 1'
_cell_length_a   5.02877500
_cell_length_b   8.81065494
_cell_length_c   13.38341999
_cell_angle_alpha   108.99503842
_cell_angle_beta   98.93452016
_cell_angle_gamma   91.01664293
_symmetry_Int_Tables_number   1
_chemical_formula_structural   LiCo3(SiO4)2
_chemical_formula_sum   'Li3 Co9 Si6 O24'
_cell_volume   552.40156185
_cell_formula_units_Z   3
loop_
 _symmetry_equiv_pos_site_id
 _symmetry_equiv_pos_as_xyz
  1  'x, y, z'
loop_
 _atom_site_type_symbol
 _atom_site_label
 _atom_site_symmetry_multiplicity
 _atom_site_fract_x
 _atom_site_fract_y
 _atom_site_fract_z
 _atom_site_occupancy
  Li  Li0  1  0.38789900  0.61319800  0.68314100  1
  Li  Li1  1  0.48805700  0.11285500  0.85330900  1
  Li  Li2  1  0.71274400  0.34658000  0.36126000  1
  Co  Co3  1  0.26776200  0.21450700  0.49207600  1
  Co  Co4  1  0.27960500  0.86593500  0.33792100  1
  Co  Co5  1  0.21188200  0.45058400  0.18259500  1
  Co  Co6  1  0.91627900  0.59784200  0.84212000  1
  Co  Co7  1  0.99043300  0.01408400  0.99711700  1
  Co  Co8  1  0.68545500  0.92329100  0.18756400  1
  Co  Co9  1  0.61028400  0.52184200  0.03908800  1
  Co  Co10  1  0.87522700  0.70613500  0.53565200  1
  Co  Co11  1  0.95101300  0.12544200  0.68855700  1
  Si  Si12  1  0.03522800  0.31506900  0.93367700  1
  Si  Si13  1  0.47059500  0.79601800  0.94078800  1
  Si  Si14  1  0.18729300  0.14730300  0.25331800  1
  Si  Si15  1  0.40664100  0.93276600  0.59505700  1
  Si  Si16  1  0.83019700  0.41001700  0.59950800  1
  Si  Si17  1  0.75467500  0.64832500  0.28279600  1
  O  O18  1  0.02359300  0.26046700  0.60193300  1
  O  O19  1  0.03446800  0.55177000  0.58873400  1
  O  O20  1  0.09190300  0.90670000  0.61586900  1
  O  O21  1  0.16358000  0.23042600  0.82686300  1
  O  O22  1  0.03488400  0.20356600  0.35830700  1
  O  O23  1  0.33673500  0.96913000  0.96058300  1
  O  O24  1  0.27747900  0.65535700  0.84208800  1
  O  O25  1  0.38327200  0.99574800  0.49018100  1
  O  O26  1  0.53633000  0.75590200  0.57263800  1
  O  O27  1  0.58474500  0.06526500  0.70031800  1
  O  O28  1  0.40228100  0.01352600  0.26804700  1
  O  O29  1  0.28554300  0.39246700  0.03484700  1
  O  O30  1  0.36158600  0.29644100  0.24181000  1
  O  O31  1  0.42463100  0.65820100  0.26484500  1
  O  O32  1  0.58268100  0.34757600  0.49808300  1
  O  O33  1  0.76639100  0.81072000  0.90236600  1
  O  O34  1  0.70202100  0.48860100  0.70915400  1
  O  O35  1  0.83649300  0.18535500  0.95733300  1
  O  O36  1  0.84803700  0.46672900  0.92696800  1
  O  O37  1  0.52692100  0.74711800  0.05093900  1
  O  O38  1  0.85623200  0.59771800  0.38954300  1
  O  O39  1  0.83528600  0.51234000  0.17603000  1
  O  O40  1  0.88700300  0.82496300  0.29200500  1
  O  O41  1  0.95400300  0.05377300  0.14603300  1
