# generated using pymatgen
data_LiCoO2
_symmetry_space_group_name_H-M   'P 1'
_cell_length_a   4.95337386
_cell_length_b   5.00346307
_cell_length_c   7.57310030
_cell_angle_alpha   108.77149518
_cell_angle_beta   102.85051784
_cell_angle_gamma   99.44978956
_symmetry_Int_Tables_number   1
_chemical_formula_structural   LiCoO2
_chemical_formula_sum   'Li5 Co5 O10'
_cell_volume   167.51178373
_cell_formula_units_Z   5
loop_
 _symmetry_equiv_pos_site_id
 _symmetry_equiv_pos_as_xyz
  1  'x, y, z'
loop_
 _atom_site_type_symbol
 _atom_site_label
 _atom_site_symmetry_multiplicity
 _atom_site_fract_x
 _atom_site_fract_y
 _atom_site_fract_z
 _atom_site_occupancy
  Li  Li0  1  0.21303719  0.91459887  0.41470405  1
  Li  Li1  1  0.39190099  0.28908416  0.77911480  1
  Li  Li2  1  0.50000000  0.50000000  0.50000000  1
  Li  Li3  1  0.60809901  0.71091584  0.22088520  1
  Li  Li4  1  0.78696281  0.08540113  0.58529595  1
  Co  Co5  1  0.10254412  0.69850046  0.69451475  1
  Co  Co6  1  0.00000000  0.50000000  0.00000000  1
  Co  Co7  1  0.69737402  0.89695011  0.89890681  1
  Co  Co8  1  0.30262598  0.10304989  0.10109319  1
  Co  Co9  1  0.89745588  0.30149954  0.30548525  1
  O  O10  1  0.03781537  0.08105566  0.85760041  1
  O  O11  1  0.34754500  0.72638247  0.94859389  1
  O  O12  1  0.13032533  0.32302875  0.54841113  1
  O  O13  1  0.22750943  0.47251294  0.23061782  1
  O  O14  1  0.44594855  0.89047080  0.66635680  1
  O  O15  1  0.55405145  0.10952920  0.33364320  1
  O  O16  1  0.77249057  0.52748706  0.76938218  1
  O  O17  1  0.86967467  0.67697125  0.45158887  1
  O  O18  1  0.65245500  0.27361753  0.05140611  1
  O  O19  1  0.96218463  0.91894434  0.14239959  1
