# generated using pymatgen
data_Li2Mn3VO8
_symmetry_space_group_name_H-M   'P 1'
_cell_length_a   8.25653100
_cell_length_b   8.35979000
_cell_length_c   8.77373860
_cell_angle_alpha   89.89910570
_cell_angle_beta   90.00000000
_cell_angle_gamma   90.00000000
_symmetry_Int_Tables_number   1
_chemical_formula_structural   Li2Mn3VO8
_chemical_formula_sum   'Li8 Mn12 V4 O32'
_cell_volume   605.58763875
_cell_formula_units_Z   4
loop_
 _symmetry_equiv_pos_site_id
 _symmetry_equiv_pos_as_xyz
  1  'x, y, z'
loop_
 _atom_site_type_symbol
 _atom_site_label
 _atom_site_symmetry_multiplicity
 _atom_site_fract_x
 _atom_site_fract_y
 _atom_site_fract_z
 _atom_site_occupancy
  Li  Li0  1  0.99896000  0.25235600  0.99611100  1
  Li  Li1  1  0.74720600  0.00124300  0.75208300  1
  Li  Li2  1  0.25563500  0.49854800  0.74521900  1
  Li  Li3  1  0.99802200  0.75409700  0.50306600  1
  Li  Li4  1  0.49802200  0.24590300  0.49693400  1
  Li  Li5  1  0.75563500  0.50145200  0.25478100  1
  Li  Li6  1  0.24720600  0.99875700  0.24791700  1
  Li  Li7  1  0.49896000  0.74764400  0.00388900  1
  Mn  Mn8  1  0.86984800  0.62531800  0.87221800  1
  Mn  Mn9  1  0.62336200  0.37593300  0.87309900  1
  Mn  Mn10  1  0.37385200  0.12696100  0.87749800  1
  Mn  Mn11  1  0.62793100  0.62700200  0.61884600  1
  Mn  Mn12  1  0.37858900  0.88035900  0.62064600  1
  Mn  Mn13  1  0.12256000  0.12558900  0.63260100  1
  Mn  Mn14  1  0.62256000  0.87441100  0.36739900  1
  Mn  Mn15  1  0.87858900  0.11964100  0.37935400  1
  Mn  Mn16  1  0.12793100  0.37299800  0.38115400  1
  Mn  Mn17  1  0.87385200  0.87303900  0.12250200  1
  Mn  Mn18  1  0.12336200  0.62406700  0.12690100  1
  Mn  Mn19  1  0.36984800  0.37468200  0.12778200  1
  V  V20  1  0.12697300  0.86755000  0.87399500  1
  V  V21  1  0.87018200  0.37382200  0.62516700  1
  V  V22  1  0.37018200  0.62617800  0.37483300  1
  V  V23  1  0.62697300  0.13245000  0.12600500  1
  O  O24  1  0.88258000  0.86280700  0.89625300  1
  O  O25  1  0.11317800  0.64941200  0.86737000  1
  O  O26  1  0.38885200  0.35839400  0.88208300  1
  O  O27  1  0.86241000  0.39070100  0.85660200  1
  O  O28  1  0.60896900  0.13632600  0.89509500  1
  O  O29  1  0.63267800  0.60968900  0.86104100  1
  O  O30  1  0.36106500  0.89585000  0.87558400  1
  O  O31  1  0.13711000  0.11190900  0.85824600  1
  O  O32  1  0.85986300  0.61274300  0.62530500  1
  O  O33  1  0.64880400  0.37807800  0.62037000  1
  O  O34  1  0.36242600  0.11592000  0.64960100  1
  O  O35  1  0.39222500  0.64386900  0.60500600  1
  O  O36  1  0.13861300  0.89227900  0.64466900  1
  O  O37  1  0.61653000  0.87408800  0.59042800  1
  O  O38  1  0.89290400  0.13407400  0.62908000  1
  O  O39  1  0.10759800  0.35643500  0.62515200  1
  O  O40  1  0.60759800  0.64356500  0.37484800  1
  O  O41  1  0.39290400  0.86592600  0.37092000  1
  O  O42  1  0.11653000  0.12591200  0.40957200  1
  O  O43  1  0.63861300  0.10772100  0.35533100  1
  O  O44  1  0.89222500  0.35613100  0.39499400  1
  O  O45  1  0.86242600  0.88408000  0.35039900  1
  O  O46  1  0.14880400  0.62192200  0.37963000  1
  O  O47  1  0.35986300  0.38725700  0.37469500  1
  O  O48  1  0.63711000  0.88809100  0.14175400  1
  O  O49  1  0.86106500  0.10415000  0.12441600  1
  O  O50  1  0.13267800  0.39031100  0.13895900  1
  O  O51  1  0.10896900  0.86367400  0.10490500  1
  O  O52  1  0.36241000  0.60929900  0.14339800  1
  O  O53  1  0.88885200  0.64160600  0.11791700  1
  O  O54  1  0.61317800  0.35058800  0.13263000  1
  O  O55  1  0.38258000  0.13719300  0.10374700  1
