# generated using pymatgen
data_Li3Fe(PO4)2
_symmetry_space_group_name_H-M   'P 1'
_cell_length_a   8.75794847
_cell_length_b   8.75794847
_cell_length_c   6.88949600
_cell_angle_alpha   90.00000000
_cell_angle_beta   90.00000000
_cell_angle_gamma   120.00000358
_symmetry_Int_Tables_number   1
_chemical_formula_structural   Li3Fe(PO4)2
_chemical_formula_sum   'Li9 Fe3 P6 O24'
_cell_volume   457.63880180
_cell_formula_units_Z   3
loop_
 _symmetry_equiv_pos_site_id
 _symmetry_equiv_pos_as_xyz
  1  'x, y, z'
loop_
 _atom_site_type_symbol
 _atom_site_label
 _atom_site_symmetry_multiplicity
 _atom_site_fract_x
 _atom_site_fract_y
 _atom_site_fract_z
 _atom_site_occupancy
  Li  Li0  1  0.37079500  0.06996100  0.21412500  1
  Li  Li1  1  0.93003900  0.30083400  0.21412500  1
  Li  Li2  1  0.00000000  0.00000000  0.00000000  1
  Li  Li3  1  0.33333300  0.66666700  0.97972200  1
  Li  Li4  1  0.30083400  0.37079500  0.78587500  1
  Li  Li5  1  0.69916600  0.62920500  0.21412500  1
  Li  Li6  1  0.66666700  0.33333300  0.02027800  1
  Li  Li7  1  0.06996100  0.69916600  0.78587500  1
  Li  Li8  1  0.62920500  0.93003900  0.78587500  1
  Fe  Fe9  1  0.00000000  0.00000000  0.50000000  1
  Fe  Fe10  1  0.33333300  0.66666700  0.54625200  1
  Fe  Fe11  1  0.66666700  0.33333300  0.45374800  1
  P  P12  1  0.02821600  0.68191000  0.25585100  1
  P  P13  1  0.31809000  0.34630600  0.25585100  1
  P  P14  1  0.65369400  0.97178400  0.25585100  1
  P  P15  1  0.34630600  0.02821600  0.74414900  1
  P  P16  1  0.68191000  0.65369400  0.74414900  1
  P  P17  1  0.97178400  0.31809000  0.74414900  1
  O  O18  1  0.14552400  0.95052900  0.70161800  1
  O  O19  1  0.12574900  0.72713200  0.06288200  1
  O  O20  1  0.15762100  0.70579500  0.42169500  1
  O  O21  1  0.37722900  0.86650100  0.74619200  1
  O  O22  1  0.13349900  0.51072800  0.74619200  1
  O  O23  1  0.04947100  0.19499500  0.70161800  1
  O  O24  1  0.54817500  0.84237900  0.42169500  1
  O  O25  1  0.29420500  0.45182500  0.42169500  1
  O  O26  1  0.19499500  0.14552400  0.29838200  1
  O  O27  1  0.27286800  0.39861700  0.06288200  1
  O  O28  1  0.60138300  0.87425100  0.06288200  1
  O  O29  1  0.48927200  0.62277100  0.74619200  1
  O  O30  1  0.51072800  0.37722900  0.25380800  1
  O  O31  1  0.39861700  0.12574900  0.93711800  1
  O  O32  1  0.72713200  0.60138300  0.93711800  1
  O  O33  1  0.80500500  0.85447600  0.70161800  1
  O  O34  1  0.70579500  0.54817500  0.57830500  1
  O  O35  1  0.45182500  0.15762100  0.57830500  1
  O  O36  1  0.95052900  0.80500500  0.29838200  1
  O  O37  1  0.86650100  0.48927200  0.25380800  1
  O  O38  1  0.62277100  0.13349900  0.25380800  1
  O  O39  1  0.84237900  0.29420500  0.57830500  1
  O  O40  1  0.87425100  0.27286800  0.93711800  1
  O  O41  1  0.85447600  0.04947100  0.29838200  1
