# generated using pymatgen
data_LiFe2(SiO4)2
_symmetry_space_group_name_H-M   'P 1'
_cell_length_a   10.90735927
_cell_length_b   10.90735927
_cell_length_c   11.84825800
_cell_angle_alpha   90.00000000
_cell_angle_beta   90.00000000
_cell_angle_gamma   119.99999554
_symmetry_Int_Tables_number   1
_chemical_formula_structural   LiFe2(SiO4)2
_chemical_formula_sum   'Li6 Fe12 Si12 O48'
_cell_volume   1220.74341413
_cell_formula_units_Z   6
loop_
 _symmetry_equiv_pos_site_id
 _symmetry_equiv_pos_as_xyz
  1  'x, y, z'
loop_
 _atom_site_type_symbol
 _atom_site_label
 _atom_site_symmetry_multiplicity
 _atom_site_fract_x
 _atom_site_fract_y
 _atom_site_fract_z
 _atom_site_occupancy
  Li  Li0  1  0.00000000  0.50000000  0.33333300  1
  Li  Li1  1  0.00000000  0.00000000  0.16666700  1
  Li  Li2  1  0.00000000  0.00000000  0.50000000  1
  Li  Li3  1  0.00000000  0.00000000  0.83333300  1
  Li  Li4  1  0.50000000  0.00000000  0.00000000  1
  Li  Li5  1  0.50000000  0.50000000  0.66666700  1
  Fe  Fe6  1  0.00000000  0.74667700  0.83333300  1
  Fe  Fe7  1  0.25332300  0.00000000  0.50000000  1
  Fe  Fe8  1  0.00000000  0.25332300  0.83333300  1
  Fe  Fe9  1  0.25100000  0.74900000  0.16666700  1
  Fe  Fe10  1  0.50200100  0.25100000  0.83333300  1
  Fe  Fe11  1  0.25100000  0.50200100  0.50000000  1
  Fe  Fe12  1  0.74900000  0.49799900  0.50000000  1
  Fe  Fe13  1  0.49799900  0.74900000  0.83333300  1
  Fe  Fe14  1  0.74900000  0.25100000  0.16666700  1
  Fe  Fe15  1  0.25332300  0.25332300  0.16666700  1
  Fe  Fe16  1  0.74667700  0.00000000  0.50000000  1
  Fe  Fe17  1  0.74667700  0.74667700  0.16666700  1
  Si  Si18  1  0.00000000  0.75387700  0.33333300  1
  Si  Si19  1  0.24612300  0.00000000  0.00000000  1
  Si  Si20  1  0.24798900  0.75201100  0.66666700  1
  Si  Si21  1  0.49597800  0.24798900  0.33333300  1
  Si  Si22  1  0.00000000  0.24612300  0.33333300  1
  Si  Si23  1  0.24798900  0.49597800  0.00000000  1
  Si  Si24  1  0.75201100  0.50402200  0.00000000  1
  Si  Si25  1  0.24612300  0.24612300  0.66666700  1
  Si  Si26  1  0.50402200  0.75201100  0.33333300  1
  Si  Si27  1  0.75201100  0.24798900  0.66666700  1
  Si  Si28  1  0.75387700  0.00000000  0.00000000  1
  Si  Si29  1  0.75387700  0.75387700  0.66666700  1
  O  O30  1  0.07873400  0.88514300  0.42403200  1
  O  O31  1  0.19359100  0.11485700  0.57596800  1
  O  O32  1  0.11485700  0.92126600  0.90930100  1
  O  O33  1  0.19359100  0.07873400  0.09069900  1
  O  O34  1  0.10135700  0.70231700  0.73488300  1
  O  O35  1  0.39904000  0.29768300  0.26511700  1
  O  O36  1  0.10612300  0.70908900  0.27033400  1
  O  O37  1  0.39703400  0.29091100  0.72966600  1
  O  O38  1  0.29091100  0.89387700  0.06300000  1
  O  O39  1  0.39703400  0.10612300  0.93700000  1
  O  O40  1  0.29768300  0.89864300  0.59845100  1
  O  O41  1  0.39904000  0.10135700  0.40154900  1
  O  O42  1  0.20743800  0.61848500  0.58275700  1
  O  O43  1  0.58895300  0.38151500  0.41724300  1
  O  O44  1  0.10135700  0.39904000  0.93178400  1
  O  O45  1  0.70231700  0.60096000  0.06821600  1
  O  O46  1  0.10612300  0.39703400  0.39633300  1
  O  O47  1  0.70908900  0.60296600  0.60366700  1
  O  O48  1  0.20743800  0.58895300  0.08391000  1
  O  O49  1  0.61848500  0.41104700  0.91609000  1
  O  O50  1  0.07873400  0.19359100  0.24263500  1
  O  O51  1  0.88514300  0.80640900  0.75736500  1
  O  O52  1  0.38151500  0.79256200  0.75057600  1
  O  O53  1  0.58895300  0.20743800  0.24942400  1
  O  O54  1  0.41104700  0.79256200  0.24942400  1
  O  O55  1  0.61848500  0.20743800  0.75057600  1
  O  O56  1  0.11485700  0.19359100  0.75736500  1
  O  O57  1  0.92126600  0.80640900  0.24263500  1
  O  O58  1  0.38151500  0.58895300  0.91609000  1
  O  O59  1  0.79256200  0.41104700  0.08391000  1
  O  O60  1  0.29091100  0.39703400  0.60366700  1
  O  O61  1  0.89387700  0.60296600  0.39633300  1
  O  O62  1  0.29768300  0.39904000  0.06821600  1
  O  O63  1  0.89864300  0.60096000  0.93178400  1
  O  O64  1  0.41104700  0.61848500  0.41724300  1
  O  O65  1  0.79256200  0.38151500  0.58275700  1
  O  O66  1  0.60096000  0.89864300  0.40154900  1
  O  O67  1  0.70231700  0.10135700  0.59845100  1
  O  O68  1  0.60296600  0.89387700  0.93700000  1
  O  O69  1  0.70908900  0.10612300  0.06300000  1
  O  O70  1  0.60296600  0.70908900  0.72966600  1
  O  O71  1  0.89387700  0.29091100  0.27033400  1
  O  O72  1  0.60096000  0.70231700  0.26511700  1
  O  O73  1  0.89864300  0.29768300  0.73488300  1
  O  O74  1  0.80640900  0.92126600  0.09069900  1
  O  O75  1  0.88514300  0.07873400  0.90930100  1
  O  O76  1  0.80640900  0.88514300  0.57596800  1
  O  O77  1  0.92126600  0.11485700  0.42403200  1
