# generated using pymatgen
data_LiMnPO4
_symmetry_space_group_name_H-M   'P 1'
_cell_length_a   5.33373500
_cell_length_b   8.24063361
_cell_length_c   8.60571506
_cell_angle_alpha   105.99816156
_cell_angle_beta   89.99961680
_cell_angle_gamma   89.99938865
_symmetry_Int_Tables_number   1
_chemical_formula_structural   LiMnPO4
_chemical_formula_sum   'Li4 Mn4 P4 O16'
_cell_volume   363.60063665
_cell_formula_units_Z   4
loop_
 _symmetry_equiv_pos_site_id
 _symmetry_equiv_pos_as_xyz
  1  'x, y, z'
loop_
 _atom_site_type_symbol
 _atom_site_label
 _atom_site_symmetry_multiplicity
 _atom_site_fract_x
 _atom_site_fract_y
 _atom_site_fract_z
 _atom_site_occupancy
  Li  Li0  1  0.33890800  0.86956100  0.21249400  1
  Li  Li1  1  0.66109700  0.86956500  0.71250100  1
  Li  Li2  1  0.82417600  0.36209300  0.38143900  1
  Li  Li3  1  0.17582700  0.36209600  0.88144300  1
  Mn  Mn4  1  0.32357800  0.48944300  0.26764600  1
  Mn  Mn5  1  0.67643700  0.48945100  0.76763000  1
  Mn  Mn6  1  0.83955100  0.96190500  0.07020700  1
  Mn  Mn7  1  0.16046200  0.96188300  0.57017200  1
  P  P8  1  0.67536300  0.25107600  0.00575000  1
  P  P9  1  0.32463600  0.25107100  0.50574900  1
  P  P10  1  0.81968800  0.74025600  0.33637300  1
  P  P11  1  0.18030500  0.74025400  0.83636700  1
  O  O12  1  0.20049400  0.87302900  0.00451000  1
  O  O13  1  0.79949000  0.87303400  0.50451500  1
  O  O14  1  0.40288200  0.31937000  0.04310900  1
  O  O15  1  0.59711600  0.31936400  0.54310200  1
  O  O16  1  0.69670600  0.80956000  0.20380600  1
  O  O17  1  0.30328900  0.80956300  0.70380100  1
  O  O18  1  0.10844900  0.71091400  0.30070300  1
  O  O19  1  0.89154700  0.71091000  0.80069900  1
  O  O20  1  0.80051900  0.22788800  0.16234500  1
  O  O21  1  0.19948800  0.22787600  0.66234100  1
  O  O22  1  0.68716700  0.57556100  0.34203200  1
  O  O23  1  0.31283900  0.57556100  0.84202800  1
  O  O24  1  0.17648300  0.37780700  0.43602000  1
  O  O25  1  0.82350000  0.37780600  0.93600800  1
  O  O26  1  0.31500800  0.07035200  0.38740000  1
  O  O27  1  0.68499500  0.07035400  0.88741300  1
