# generated using pymatgen
data_LiMnPO4
_symmetry_space_group_name_H-M   'P 1'
_cell_length_a   5.12685501
_cell_length_b   8.23331400
_cell_length_c   9.13788401
_cell_angle_alpha   90.00195442
_cell_angle_beta   90.00554784
_cell_angle_gamma   90.00198550
_symmetry_Int_Tables_number   1
_chemical_formula_structural   LiMnPO4
_chemical_formula_sum   'Li4 Mn4 P4 O16'
_cell_volume   385.71928479
_cell_formula_units_Z   4
loop_
 _symmetry_equiv_pos_site_id
 _symmetry_equiv_pos_as_xyz
  1  'x, y, z'
loop_
 _atom_site_type_symbol
 _atom_site_label
 _atom_site_symmetry_multiplicity
 _atom_site_fract_x
 _atom_site_fract_y
 _atom_site_fract_z
 _atom_site_occupancy
  Li  Li0  1  0.91187500  0.05740900  0.60332400  1
  Li  Li1  1  0.41188800  0.44255800  0.10329200  1
  Li  Li2  1  0.91193100  0.55736900  0.89670400  1
  Li  Li3  1  0.41187400  0.94262200  0.39674300  1
  Mn  Mn4  1  0.51599500  0.33583200  0.52538200  1
  Mn  Mn5  1  0.51592800  0.83586300  0.97453700  1
  Mn  Mn6  1  0.01594900  0.16408400  0.02540100  1
  Mn  Mn7  1  0.01598700  0.66411500  0.47459600  1
  P  P8  1  0.56617100  0.23246900  0.86297900  1
  P  P9  1  0.06612300  0.26754100  0.36294200  1
  P  P10  1  0.56616500  0.73247900  0.63701400  1
  P  P11  1  0.06622100  0.76753200  0.13705700  1
  O  O12  1  0.65528800  0.07316700  0.94351900  1
  O  O13  1  0.15528600  0.42684400  0.44351200  1
  O  O14  1  0.65530200  0.57319100  0.55644100  1
  O  O15  1  0.15536500  0.92681400  0.05647800  1
  O  O16  1  0.19877300  0.12922700  0.45392500  1
  O  O17  1  0.69883100  0.37076400  0.95398400  1
  O  O18  1  0.19887300  0.62920100  0.04610400  1
  O  O19  1  0.69882900  0.87078600  0.54606400  1
  O  O20  1  0.26760600  0.25270100  0.86336400  1
  O  O21  1  0.76757600  0.24735900  0.36325100  1
  O  O22  1  0.26761800  0.75269000  0.63664700  1
  O  O23  1  0.76765700  0.74734400  0.13672200  1
  O  O24  1  0.67613200  0.22262300  0.70487800  1
  O  O25  1  0.17621900  0.27741400  0.20487300  1
  O  O26  1  0.67620800  0.72257200  0.79512200  1
  O  O27  1  0.17633000  0.77742900  0.29514600  1
