# generated using pymatgen
data_LiV3OF11
_symmetry_space_group_name_H-M   'P 1'
_cell_length_a   5.24035300
_cell_length_b   5.41180800
_cell_length_c   15.37962900
_cell_angle_alpha   79.93170968
_cell_angle_beta   90.00000000
_cell_angle_gamma   90.00000000
_symmetry_Int_Tables_number   1
_chemical_formula_structural   LiV3OF11
_chemical_formula_sum   'Li2 V6 O2 F22'
_cell_volume   429.44608776
_cell_formula_units_Z   2
loop_
 _symmetry_equiv_pos_site_id
 _symmetry_equiv_pos_as_xyz
  1  'x, y, z'
loop_
 _atom_site_type_symbol
 _atom_site_label
 _atom_site_symmetry_multiplicity
 _atom_site_fract_x
 _atom_site_fract_y
 _atom_site_fract_z
 _atom_site_occupancy
  Li  Li0  1  0.21004000  0.96687500  0.22991500  1
  Li  Li1  1  0.78996000  0.46687500  0.22991500  1
  V  V2  1  0.71860800  0.85167100  0.34019800  1
  V  V3  1  0.24939100  0.00132100  0.99681300  1
  V  V4  1  0.25019900  0.66659000  0.66680000  1
  V  V5  1  0.28139200  0.35167100  0.34019800  1
  V  V6  1  0.75060900  0.50132100  0.99681300  1
  V  V7  1  0.74980100  0.16659000  0.66680000  1
  O  O8  1  0.45211400  0.64555000  0.30922100  1
  O  O9  1  0.54788600  0.14555000  0.30922100  1
  F  F10  1  0.44357600  0.98069400  0.64333600  1
  F  F11  1  0.55618000  0.81421700  0.97590500  1
  F  F12  1  0.94450600  0.85174700  0.69062200  1
  F  F13  1  0.33509100  0.95782200  0.11494600  1
  F  F14  1  0.33699100  0.62502700  0.77970600  1
  F  F15  1  0.67145400  0.77923200  0.45486500  1
  F  F16  1  0.16664200  0.70417500  0.55415800  1
  F  F17  1  0.84046000  0.53928100  0.88445500  1
  F  F18  1  0.85669100  0.84902600  0.22445300  1
  F  F19  1  0.55642400  0.48069400  0.64333600  1
  F  F20  1  0.44382000  0.31421700  0.97590500  1
  F  F21  1  0.95287200  0.51871700  0.35582700  1
  F  F22  1  0.05330000  0.68716700  0.02389900  1
  F  F23  1  0.05549400  0.35174700  0.69062200  1
  F  F24  1  0.66490900  0.45782200  0.11494600  1
  F  F25  1  0.66300900  0.12502700  0.77970600  1
  F  F26  1  0.32854600  0.27923200  0.45486500  1
  F  F27  1  0.83335800  0.20417500  0.55415800  1
  F  F28  1  0.15954000  0.03928100  0.88445500  1
  F  F29  1  0.14330900  0.34902600  0.22445300  1
  F  F30  1  0.04712800  0.01871700  0.35582700  1
  F  F31  1  0.94670000  0.18716700  0.02389900  1
