# generated using pymatgen
data_Li4V3P8O29
_symmetry_space_group_name_H-M   'P 1'
_cell_length_a   9.74402900
_cell_length_b   9.76614793
_cell_length_c   14.21076329
_cell_angle_alpha   89.69552772
_cell_angle_beta   89.83442749
_cell_angle_gamma   60.34214753
_symmetry_Int_Tables_number   1
_chemical_formula_structural   Li4V3P8O29
_chemical_formula_sum   'Li8 V6 P16 O58'
_cell_volume   1175.14314108
_cell_formula_units_Z   2
loop_
 _symmetry_equiv_pos_site_id
 _symmetry_equiv_pos_as_xyz
  1  'x, y, z'
loop_
 _atom_site_type_symbol
 _atom_site_label
 _atom_site_symmetry_multiplicity
 _atom_site_fract_x
 _atom_site_fract_y
 _atom_site_fract_z
 _atom_site_occupancy
  Li  Li0  1  0.66870800  0.09470000  0.06018000  1
  Li  Li1  1  0.23215600  0.09129900  0.55474400  1
  Li  Li2  1  0.23914700  0.66434700  0.05891800  1
  Li  Li3  1  0.89732800  0.33658300  0.44242200  1
  Li  Li4  1  0.09441200  0.66690600  0.56278800  1
  Li  Li5  1  0.32920700  0.90508700  0.94432800  1
  Li  Li6  1  0.97055900  0.05168300  0.00104200  1
  Li  Li7  1  0.96256300  0.99283900  0.49380300  1
  V  V8  1  0.00262600  0.43313400  0.24282400  1
  V  V9  1  0.99999300  0.56512100  0.75681000  1
  V  V10  1  0.56666300  0.43327300  0.74527500  1
  V  V11  1  0.43851100  0.56433300  0.25573500  1
  V  V12  1  0.56650800  0.99955600  0.25213500  1
  V  V13  1  0.43965700  0.99986200  0.74733500  1
  P  P14  1  0.68957600  0.08893800  0.84161900  1
  P  P15  1  0.69458100  0.22069300  0.34239500  1
  P  P16  1  0.22149800  0.08836100  0.34067600  1
  P  P17  1  0.33737900  0.33605800  0.13137200  1
  P  P18  1  0.32997500  0.33597100  0.63199200  1
  P  P19  1  0.08745200  0.21692900  0.84109000  1
  P  P20  1  0.91559400  0.31479600  0.65914800  1
  P  P21  1  0.23136900  0.68367200  0.84274600  1
  P  P22  1  0.77521500  0.30902200  0.15857100  1
  P  P23  1  0.08638300  0.68490500  0.34403000  1
  P  P24  1  0.91715000  0.78063000  0.16171900  1
  P  P25  1  0.67485800  0.66140300  0.36712900  1
  P  P26  1  0.66013000  0.66796300  0.86616900  1
  P  P27  1  0.78502400  0.91392300  0.66058600  1
  P  P28  1  0.30565700  0.77885800  0.65963800  1
  P  P29  1  0.31312400  0.91145300  0.16003100  1
  O  O30  1  0.79874800  0.99794100  0.57725800  1
  O  O31  1  0.65551000  0.08655200  0.33487500  1
  O  O32  1  0.78702200  0.21077800  0.07534900  1
  O  O33  1  0.65689900  0.25974000  0.82825700  1
  O  O34  1  0.53226500  0.08640400  0.82472900  1
  O  O35  1  0.48854300  0.18673600  0.16706700  1
  O  O36  1  0.37577900  0.09112700  0.32783600  1
  O  O37  1  0.22982600  0.98480000  0.06984200  1
  O  O38  1  0.26347800  0.07762300  0.83385400  1
  O  O39  1  0.48019000  0.33265100  0.67550400  1
  O  O40  1  0.53852400  0.38076800  0.33049800  1
  O  O41  1  0.32724500  0.18531400  0.67395300  1
  O  O42  1  0.32773400  0.34955100  0.02694200  1
  O  O43  1  0.32726600  0.33170000  0.52739700  1
  O  O44  1  0.18861600  0.33364200  0.17735600  1
  O  O45  1  0.38445200  0.52698400  0.82446600  1
  O  O46  1  0.33182600  0.48570400  0.17621600  1
  O  O47  1  0.07763700  0.26021000  0.33153000  1
  O  O48  1  0.00839900  0.19667000  0.74421000  1
  O  O49  1  0.99537800  0.23659000  0.56820100  1
  O  O50  1  0.00939700  0.19078400  0.92337800  1
  O  O51  1  0.08507200  0.37382700  0.83276000  1
  O  O52  1  0.18595500  0.48656800  0.67236900  1
  O  O53  1  0.91267000  0.34675200  0.16221900  1
  O  O54  1  0.08375000  0.53032600  0.32730900  1
  O  O55  1  0.25917900  0.65292400  0.33112500  1
  O  O56  1  0.79948500  0.20333700  0.25072000  1
  O  O57  1  0.79301600  0.20813100  0.42590300  1
  O  O58  1  0.19994500  0.79155900  0.58029700  1
  O  O59  1  0.74366200  0.34508800  0.66395800  1
  O  O60  1  0.91415100  0.47097900  0.67585400  1
  O  O61  1  0.08875600  0.65658500  0.83626800  1
  O  O62  1  0.81843300  0.51016800  0.32219700  1
  O  O63  1  0.91841000  0.62051600  0.17264700  1
  O  O64  1  0.01295800  0.78656100  0.08140400  1
  O  O65  1  0.02048100  0.76344600  0.43613300  1
  O  O66  1  0.98906700  0.80255600  0.25977400  1
  O  O67  1  0.91905000  0.74105700  0.66480100  1
  O  O68  1  0.65965900  0.52314400  0.81793800  1
  O  O69  1  0.61643400  0.46232700  0.17117300  1
  O  O70  1  0.80722300  0.67055400  0.82958800  1
  O  O71  1  0.63057600  0.68198600  0.96923100  1
  O  O72  1  0.67705000  0.64370400  0.47107000  1
  O  O73  1  0.67421200  0.80702200  0.32533300  1
  O  O74  1  0.46096600  0.61960900  0.66885800  1
  O  O75  1  0.52383400  0.66190200  0.32103100  1
  O  O76  1  0.74591700  0.91853700  0.16016100  1
  O  O77  1  0.80459700  0.99082900  0.75738200  1
  O  O78  1  0.76359100  0.02271300  0.93481600  1
  O  O79  1  0.62088000  0.92148500  0.67260400  1
  O  O80  1  0.51146100  0.81733400  0.81778200  1
  O  O81  1  0.46885800  0.91447000  0.17414900  1
  O  O82  1  0.34605700  0.73784300  0.16542600  1
  O  O83  1  0.23388200  0.76229800  0.93301200  1
  O  O84  1  0.21234000  0.80208900  0.75816300  1
  O  O85  1  0.34187600  0.91785900  0.65734400  1
  O  O86  1  0.20518700  0.01777400  0.43070300  1
  O  O87  1  0.20275500  0.99712100  0.25031900  1
