# generated using pymatgen
data_Li5Mn4(P2O7)4
_symmetry_space_group_name_H-M   'P 1'
_cell_length_a   9.79439200
_cell_length_b   9.81276280
_cell_length_c   11.28100741
_cell_angle_alpha   77.88876504
_cell_angle_beta   89.83944880
_cell_angle_gamma   89.83681993
_symmetry_Int_Tables_number   1
_chemical_formula_structural   Li5Mn4(P2O7)4
_chemical_formula_sum   'Li10 Mn8 P16 O56'
_cell_volume   1060.07873753
_cell_formula_units_Z   2
loop_
 _symmetry_equiv_pos_site_id
 _symmetry_equiv_pos_as_xyz
  1  'x, y, z'
loop_
 _atom_site_type_symbol
 _atom_site_label
 _atom_site_symmetry_multiplicity
 _atom_site_fract_x
 _atom_site_fract_y
 _atom_site_fract_z
 _atom_site_occupancy
  Li  Li0  1  0.10622800  0.08792400  0.97619400  1
  Li  Li1  1  0.60970800  0.40872800  0.02614600  1
  Li  Li2  1  0.91717100  0.33885200  0.53686900  1
  Li  Li3  1  0.21913300  0.39018000  0.44973300  1
  Li  Li4  1  0.39450900  0.58480200  0.97287800  1
  Li  Li5  1  0.58756800  0.85085900  0.04815000  1
  Li  Li6  1  0.09196600  0.64607900  0.95466900  1
  Li  Li7  1  0.89332200  0.91120600  0.03076500  1
  Li  Li8  1  0.57984200  0.83948700  0.53596300  1
  Li  Li9  1  0.28007600  0.88974700  0.44913800  1
  Mn  Mn10  1  0.91905100  0.20352300  0.32496700  1
  Mn  Mn11  1  0.20947700  0.25485800  0.17560500  1
  Mn  Mn12  1  0.71507500  0.23335900  0.82704200  1
  Mn  Mn13  1  0.42866300  0.30597600  0.66651300  1
  Mn  Mn14  1  0.57869500  0.70502600  0.32703000  1
  Mn  Mn15  1  0.28631500  0.75450100  0.17477800  1
  Mn  Mn16  1  0.78463300  0.73316800  0.82696000  1
  Mn  Mn17  1  0.07071000  0.80429000  0.66495000  1
  P  P18  1  0.44836600  0.02558600  0.24594300  1
  P  P19  1  0.70771800  0.11895400  0.11064200  1
  P  P20  1  0.93250000  0.06059500  0.76014400  1
  P  P21  1  0.15416500  0.13030500  0.57545500  1
  P  P22  1  0.64127900  0.37748800  0.43032300  1
  P  P23  1  0.42920700  0.43803000  0.24217300  1
  P  P24  1  0.04994700  0.52130100  0.24302300  1
  P  P25  1  0.21114100  0.37863100  0.88277500  1
  P  P26  1  0.79335700  0.61548400  0.10895600  1
  P  P27  1  0.93998300  0.46817000  0.75714500  1
  P  P28  1  0.56798300  0.56067700  0.75827600  1
  P  P29  1  0.34597500  0.62936800  0.57575300  1
  P  P30  1  0.85433300  0.88042000  0.42455900  1
  P  P31  1  0.07205500  0.93774900  0.24311900  1
  P  P32  1  0.29269300  0.88226300  0.88596400  1
  P  P33  1  0.55947000  0.97034200  0.75822100  1
  O  O34  1  0.42187900  0.01587000  0.37801900  1
  O  O35  1  0.85044700  0.03626900  0.43013400  1
  O  O36  1  0.08156300  0.08655900  0.27018000  1
  O  O37  1  0.34335900  0.10835700  0.15750500  1
  O  O38  1  0.59022900  0.10605400  0.21287200  1
  O  O39  1  0.82900100  0.17472000  0.16864800  1
  O  O40  1  0.65425500  0.22681900  0.99712600  1
  O  O41  1  0.26112100  0.01757400  0.91918200  1
  O  O42  1  0.07605200  0.11861900  0.70493000  1
  O  O43  1  0.93587400  0.05811100  0.89417200  1
  O  O44  1  0.55805000  0.11878800  0.79046400  1
  O  O45  1  0.28955500  0.20070800  0.59136000  1
  O  O46  1  0.82313900  0.16753500  0.69953500  1
  O  O47  1  0.06597500  0.22724100  0.48062800  1
  O  O48  1  0.56063800  0.28893100  0.53654000  1
  O  O49  1  0.30830200  0.34565800  0.29841100  1
  O  O50  1  0.78405400  0.31810100  0.41576800  1
  O  O51  1  0.03566900  0.36654900  0.21951100  1
  O  O52  1  0.56520300  0.36666600  0.30550700  1
  O  O53  1  0.44189500  0.43779200  0.10893700  1
  O  O54  1  0.76810100  0.47867900  0.07632400  1
  O  O55  1  0.16355600  0.27016100  0.99509500  1
  O  O56  1  0.32867900  0.32197800  0.81557700  1
  O  O57  1  0.08754500  0.39794100  0.78585700  1
  O  O58  1  0.58437500  0.41384300  0.72766600  1
  O  O59  1  0.83970800  0.37853100  0.84761100  1
  O  O60  1  0.08623300  0.52215900  0.37140300  1
  O  O61  1  0.33509200  0.48090400  0.55624400  1
  O  O62  1  0.64733900  0.53164700  0.43526900  1
  O  O63  1  0.91506500  0.47552200  0.62606600  1
  O  O64  1  0.14274700  0.60434000  0.14272200  1
  O  O65  1  0.41748400  0.58578000  0.27077300  1
  O  O66  1  0.90198600  0.59392800  0.21886700  1
  O  O67  1  0.67360400  0.68928000  0.15668700  1
  O  O68  1  0.86231200  0.72187100  0.99751700  1
  O  O69  1  0.23332800  0.51848900  0.91490800  1
  O  O70  1  0.56436500  0.55914700  0.89220800  1
  O  O71  1  0.42407900  0.62037500  0.70458400  1
  O  O72  1  0.94687900  0.61638500  0.79443600  1
  O  O73  1  0.20763600  0.69458800  0.59287000  1
  O  O74  1  0.67874800  0.66686700  0.69884300  1
  O  O75  1  0.43224000  0.72780700  0.48133500  1
  O  O76  1  0.93156300  0.79275500  0.53237700  1
  O  O77  1  0.18924300  0.84594200  0.30422300  1
  O  O78  1  0.71063900  0.82506000  0.40979100  1
  O  O79  1  0.46746100  0.87681000  0.21220400  1
  O  O80  1  0.06304100  0.93403200  0.11003300  1
  O  O81  1  0.93089100  0.86988900  0.30039300  1
  O  O82  1  0.72564900  0.97873200  0.07777000  1
  O  O83  1  0.35837100  0.77522600  0.99364700  1
  O  O84  1  0.17354900  0.80949700  0.83106200  1
  O  O85  1  0.40719900  0.90945400  0.77919200  1
  O  O86  1  0.64982300  0.87361000  0.85760700  1
  O  O87  1  0.91464000  0.91232500  0.73138600  1
  O  O88  1  0.16787500  0.98181900  0.55676500  1
  O  O89  1  0.59648300  0.96836000  0.63115000  1
