# generated using pymatgen
data_Li4Cu2Ni5O12
_symmetry_space_group_name_H-M   'P 1'
_cell_length_a   5.27088709
_cell_length_b   8.56290013
_cell_length_c   9.57282716
_cell_angle_alpha   89.99999765
_cell_angle_beta   97.20321735
_cell_angle_gamma   89.99998671
_symmetry_Int_Tables_number   1
_chemical_formula_structural   Li4Cu2Ni5O12
_chemical_formula_sum   'Li8 Cu4 Ni10 O24'
_cell_volume   428.65077474
_cell_formula_units_Z   2
loop_
 _symmetry_equiv_pos_site_id
 _symmetry_equiv_pos_as_xyz
  1  'x, y, z'
loop_
 _atom_site_type_symbol
 _atom_site_label
 _atom_site_symmetry_multiplicity
 _atom_site_fract_x
 _atom_site_fract_y
 _atom_site_fract_z
 _atom_site_occupancy
  Li  Li0  1  0.74551500  0.09095800  0.50428700  1
  Li  Li1  1  0.24661600  0.39679600  0.99191800  1
  Li  Li2  1  0.49160900  0.42417100  0.73994200  1
  Li  Li3  1  0.76102600  0.41568300  0.50921700  1
  Li  Li4  1  0.00839100  0.92417100  0.76005800  1
  Li  Li5  1  0.75448500  0.59095800  0.99571300  1
  Li  Li6  1  0.25338400  0.89679600  0.50808200  1
  Li  Li7  1  0.73897400  0.91568300  0.99078300  1
  Cu  Cu8  1  0.99903100  0.25646300  0.75116500  1
  Cu  Cu9  1  0.49877500  0.23827900  0.24487200  1
  Cu  Cu10  1  0.00122500  0.73827900  0.25512800  1
  Cu  Cu11  1  0.50096900  0.75646300  0.74883500  1
  Ni  Ni12  1  0.00748200  0.07879400  0.24847000  1
  Ni  Ni13  1  0.49578700  0.09125200  0.74989500  1
  Ni  Ni14  1  0.25017500  0.25502100  0.50164200  1
  Ni  Ni15  1  0.99518500  0.41061100  0.25156000  1
  Ni  Ni16  1  0.74503700  0.25054100  0.99501200  1
  Ni  Ni17  1  0.00421300  0.59125200  0.75010500  1
  Ni  Ni18  1  0.49251800  0.57879400  0.25153000  1
  Ni  Ni19  1  0.24982500  0.75502100  0.99835800  1
  Ni  Ni20  1  0.75496300  0.75054100  0.50498800  1
  Ni  Ni21  1  0.50481500  0.91061100  0.24844000  1
  O  O22  1  0.12336200  0.10750300  0.63310500  1
  O  O23  1  0.38037900  0.08353300  0.35732100  1
  O  O24  1  0.06605300  0.25718900  0.11787100  1
  O  O25  1  0.64366300  0.08020100  0.14422400  1
  O  O26  1  0.43190600  0.25107300  0.87825900  1
  O  O27  1  0.85490200  0.10679200  0.86075000  1
  O  O28  1  0.10577000  0.41278200  0.63808100  1
  O  O29  1  0.57057100  0.24755500  0.61181100  1
  O  O30  1  0.37527900  0.38989800  0.35758200  1
  O  O31  1  0.92671100  0.25048300  0.38577700  1
  O  O32  1  0.61461200  0.39480700  0.13054700  1
  O  O33  1  0.11962100  0.58353300  0.14267900  1
  O  O34  1  0.90186600  0.41838300  0.86542400  1
  O  O35  1  0.37663800  0.60750300  0.86689500  1
  O  O36  1  0.06809400  0.75107300  0.62174100  1
  O  O37  1  0.64509800  0.60679200  0.63925000  1
  O  O38  1  0.43394700  0.75718900  0.38212900  1
  O  O39  1  0.85633700  0.58020100  0.35577600  1
  O  O40  1  0.12472100  0.88989800  0.14241800  1
  O  O41  1  0.57328900  0.75048300  0.11422300  1
  O  O42  1  0.39423000  0.91278200  0.86191900  1
  O  O43  1  0.92942900  0.74755500  0.88818900  1
  O  O44  1  0.59813400  0.91838300  0.63457600  1
  O  O45  1  0.88538800  0.89480700  0.36945300  1
