# generated using pymatgen
data_LiMgAsO4
_symmetry_space_group_name_H-M   'P 1'
_cell_length_a   4.94657300
_cell_length_b   6.05076800
_cell_length_c   10.57927800
_cell_angle_alpha   90.00000000
_cell_angle_beta   90.00000000
_cell_angle_gamma   90.00000000
_symmetry_Int_Tables_number   1
_chemical_formula_structural   LiMgAsO4
_chemical_formula_sum   'Li4 Mg4 As4 O16'
_cell_volume   316.64377437
_cell_formula_units_Z   4
loop_
 _symmetry_equiv_pos_site_id
 _symmetry_equiv_pos_as_xyz
  1  'x, y, z'
loop_
 _atom_site_type_symbol
 _atom_site_label
 _atom_site_symmetry_multiplicity
 _atom_site_fract_x
 _atom_site_fract_y
 _atom_site_fract_z
 _atom_site_occupancy
  Li  Li0  1  0.00000000  0.00000000  0.00000000  1
  Li  Li1  1  0.50000000  0.00000000  0.50000000  1
  Li  Li2  1  0.00000000  0.50000000  0.00000000  1
  Li  Li3  1  0.50000000  0.50000000  0.50000000  1
  Mg  Mg4  1  0.00612400  0.75000000  0.27477700  1
  Mg  Mg5  1  0.99387600  0.25000000  0.72522300  1
  Mg  Mg6  1  0.49387600  0.75000000  0.77477700  1
  Mg  Mg7  1  0.50612400  0.25000000  0.22522300  1
  As  As8  1  0.06511000  0.25000000  0.40571000  1
  As  As9  1  0.43489000  0.25000000  0.90571000  1
  As  As10  1  0.93489000  0.75000000  0.59429000  1
  As  As11  1  0.56511000  0.75000000  0.09429000  1
  O  O12  1  0.77829000  0.53096700  0.67108700  1
  O  O13  1  0.22171000  0.46903300  0.32891300  1
  O  O14  1  0.72171000  0.53096700  0.17108700  1
  O  O15  1  0.77829000  0.96903300  0.67108700  1
  O  O16  1  0.27829000  0.03096700  0.82891300  1
  O  O17  1  0.78010600  0.25000000  0.90188200  1
  O  O18  1  0.27829000  0.46903300  0.82891300  1
  O  O19  1  0.22171000  0.03096700  0.32891300  1
  O  O20  1  0.21989400  0.75000000  0.09811800  1
  O  O21  1  0.71989400  0.25000000  0.40188200  1
  O  O22  1  0.79647400  0.75000000  0.44496800  1
  O  O23  1  0.28010600  0.75000000  0.59811800  1
  O  O24  1  0.70352600  0.75000000  0.94496800  1
  O  O25  1  0.29647400  0.25000000  0.05503200  1
  O  O26  1  0.20352600  0.25000000  0.55503200  1
  O  O27  1  0.72171000  0.96903300  0.17108700  1
