# generated using pymatgen
data_Li8MnFe7(BO3)8
_symmetry_space_group_name_H-M   'P 1'
_cell_length_a   5.22889300
_cell_length_b   9.05516099
_cell_length_c   11.51277162
_cell_angle_alpha   112.15346392
_cell_angle_beta   102.53605316
_cell_angle_gamma   89.78291846
_symmetry_Int_Tables_number   1
_chemical_formula_structural   Li8MnFe7(BO3)8
_chemical_formula_sum   'Li8 Mn1 Fe7 B8 O24'
_cell_volume   490.99369628
_cell_formula_units_Z   1
loop_
 _symmetry_equiv_pos_site_id
 _symmetry_equiv_pos_as_xyz
  1  'x, y, z'
loop_
 _atom_site_type_symbol
 _atom_site_label
 _atom_site_symmetry_multiplicity
 _atom_site_fract_x
 _atom_site_fract_y
 _atom_site_fract_z
 _atom_site_occupancy
  Li  Li0  1  0.02990400  0.04193700  0.41657500  1
  Li  Li1  1  0.29305400  0.28306000  0.91568900  1
  Li  Li2  1  0.48365800  0.50665900  0.66680000  1
  Li  Li3  1  0.26923900  0.24295700  0.16606700  1
  Li  Li4  1  0.52814000  0.54055700  0.41648300  1
  Li  Li5  1  0.79493300  0.78524200  0.91659500  1
  Li  Li6  1  0.98760800  0.00814300  0.66874200  1
  Li  Li7  1  0.76846300  0.74600500  0.16624900  1
  Mn  Mn8  1  0.24100300  0.56645900  0.13188200  1
  Fe  Fe9  1  0.03058500  0.35727100  0.38493100  1
  Fe  Fe10  1  0.27864000  0.93274200  0.88228800  1
  Fe  Fe11  1  0.47077600  0.15085700  0.62996100  1
  Fe  Fe12  1  0.52942700  0.85579700  0.38348000  1
  Fe  Fe13  1  0.76570800  0.43268800  0.87872100  1
  Fe  Fe14  1  0.74735500  0.07017500  0.13438400  1
  Fe  Fe15  1  0.97134200  0.65584800  0.63193300  1
  B  B16  1  0.02216900  0.68610200  0.37783100  1
  B  B17  1  0.26634400  0.60395700  0.87504100  1
  B  B18  1  0.23645500  0.89565000  0.12754100  1
  B  B19  1  0.47444500  0.81482100  0.62638600  1
  B  B20  1  0.52232400  0.18525000  0.37689800  1
  B  B21  1  0.76862900  0.10369100  0.87557700  1
  B  B22  1  0.73205400  0.39149900  0.12499400  1
  B  B23  1  0.97348000  0.31640500  0.62644900  1
  O  O24  1  0.02381700  0.10470200  0.86214500  1
  O  O25  1  0.10168300  0.71474400  0.84556000  1
  O  O26  1  0.16691300  0.49338700  0.91466000  1
  O  O27  1  0.08364200  0.17287300  0.61435100  1
  O  O28  1  0.10159500  0.42807000  0.59620000  1
  O  O29  1  0.23818500  0.84368900  0.66422000  1
  O  O30  1  0.26872000  0.66071400  0.34905400  1
  O  O31  1  0.52396300  0.60682000  0.86290200  1
  O  O32  1  0.60248400  0.21338800  0.84543200  1
  O  O33  1  0.40230500  0.08181000  0.41734400  1
  O  O34  1  0.39616100  0.31507600  0.36352800  1
  O  O35  1  0.66851600  0.99386700  0.91621500  1
  O  O36  1  0.34135200  0.01355400  0.09638700  1
  O  O37  1  0.58429300  0.67129100  0.61377500  1
  O  O38  1  0.60282400  0.92775500  0.59746000  1
  O  O39  1  0.40296700  0.79515500  0.16841000  1
  O  O40  1  0.46420300  0.37044300  0.11125500  1
  O  O41  1  0.73724900  0.34557400  0.66471500  1
  O  O42  1  0.76771000  0.15909100  0.34681600  1
  O  O43  1  0.90131200  0.58096200  0.41610700  1
  O  O44  1  0.89687500  0.81642800  0.36482500  1
  O  O45  1  0.83391800  0.51185300  0.09521100  1
  O  O46  1  0.90083300  0.29132600  0.16589900  1
  O  O47  1  0.96594600  0.87685900  0.11363000  1
