# generated using pymatgen
data_Li2Mn3(BO3)3
_symmetry_space_group_name_H-M   'P 1'
_cell_length_a   6.32098900
_cell_length_b   8.28454712
_cell_length_c   8.74477716
_cell_angle_alpha   118.25827038
_cell_angle_beta   110.27820579
_cell_angle_gamma   88.94810994
_symmetry_Int_Tables_number   1
_chemical_formula_structural   Li2Mn3(BO3)3
_chemical_formula_sum   'Li4 Mn6 B6 O18'
_cell_volume   372.42670060
_cell_formula_units_Z   2
loop_
 _symmetry_equiv_pos_site_id
 _symmetry_equiv_pos_as_xyz
  1  'x, y, z'
loop_
 _atom_site_type_symbol
 _atom_site_label
 _atom_site_symmetry_multiplicity
 _atom_site_fract_x
 _atom_site_fract_y
 _atom_site_fract_z
 _atom_site_occupancy
  Li  Li0  1  0.90573100  0.98489600  0.28448900  1
  Li  Li1  1  0.38597000  0.97808400  0.28646700  1
  Li  Li2  1  0.08345600  0.72191600  0.70365700  1
  Li  Li3  1  0.76784900  0.29409100  0.01683800  1
  Mn  Mn4  1  0.18281800  0.37144400  0.37442100  1
  Mn  Mn5  1  0.66500300  0.36392500  0.35826500  1
  Mn  Mn6  1  0.50396700  0.64877800  0.97199100  1
  Mn  Mn7  1  0.00709800  0.59941100  0.97764400  1
  Mn  Mn8  1  0.32129300  0.01452100  0.67066000  1
  Mn  Mn9  1  0.80881700  0.00471300  0.63819200  1
  B  B10  1  0.39623100  0.67086800  0.32362000  1
  B  B11  1  0.92814300  0.66971000  0.33264000  1
  B  B12  1  0.07830900  0.33088100  0.65617100  1
  B  B13  1  0.59358300  0.33105700  0.67051500  1
  B  B14  1  0.00216700  0.99368800  0.00725800  1
  B  B15  1  0.50522000  0.00279700  0.01151500  1
  O  O16  1  0.05992900  0.89537800  0.10456300  1
  O  O17  1  0.57652800  0.93411700  0.13794100  1
  O  O18  1  0.97510200  0.85996000  0.43995100  1
  O  O19  1  0.46666000  0.85798700  0.45147600  1
  O  O20  1  0.32120200  0.61252900  0.13205400  1
  O  O21  1  0.85491400  0.57971800  0.13611100  1
  O  O22  1  0.38111700  0.87828200  0.82362300  1
  O  O23  1  0.90899200  0.90215400  0.81475100  1
  O  O24  1  0.94658100  0.56048500  0.41689800  1
  O  O25  1  0.40551500  0.53993300  0.38110200  1
  O  O26  1  0.03850600  0.18801600  0.10542900  1
  O  O27  1  0.56058900  0.18973200  0.07642200  1
  O  O28  1  0.13762400  0.52588300  0.77547700  1
  O  O29  1  0.69010500  0.52131300  0.78758100  1
  O  O30  1  0.00831700  0.25967100  0.46188200  1
  O  O31  1  0.48426800  0.26312900  0.47820400  1
  O  O32  1  0.08293600  0.21663600  0.72779100  1
  O  O33  1  0.60727300  0.21798700  0.74802300  1
