# generated using pymatgen
data_Li9Cr19O48
_symmetry_space_group_name_H-M   'P 1'
_cell_length_a   5.05422000
_cell_length_b   10.18808744
_cell_length_c   17.26677268
_cell_angle_alpha   90.39306857
_cell_angle_beta   90.38267547
_cell_angle_gamma   90.01688265
_symmetry_Int_Tables_number   1
_chemical_formula_structural   Li9Cr19O48
_chemical_formula_sum   'Li9 Cr19 O48'
_cell_volume   889.07427755
_cell_formula_units_Z   1
loop_
 _symmetry_equiv_pos_site_id
 _symmetry_equiv_pos_as_xyz
  1  'x, y, z'
loop_
 _atom_site_type_symbol
 _atom_site_label
 _atom_site_symmetry_multiplicity
 _atom_site_fract_x
 _atom_site_fract_y
 _atom_site_fract_z
 _atom_site_occupancy
  Li  Li0  1  0.09134000  0.74958000  0.75060400  1
  Li  Li1  1  0.25041300  0.57918300  0.02583200  1
  Li  Li2  1  0.25079300  0.42493300  0.53118900  1
  Li  Li3  1  0.25090400  0.07549400  0.53217900  1
  Li  Li4  1  0.25130500  0.74716100  0.19539400  1
  Li  Li5  1  0.74649400  0.25229500  0.80431700  1
  Li  Li6  1  0.74855900  0.08168900  0.97157900  1
  Li  Li7  1  0.76116600  0.74809000  0.30085100  1
  Li  Li8  1  0.90619900  0.25124000  0.24875300  1
  Cr  Cr9  1  0.22355600  0.25138100  0.05639400  1
  Cr  Cr10  1  0.22843100  0.97101300  0.34542800  1
  Cr  Cr11  1  0.22847600  0.52926700  0.34598400  1
  Cr  Cr12  1  0.25441500  0.25767700  0.69772000  1
  Cr  Cr13  1  0.25186700  0.93031600  0.02318200  1
  Cr  Cr14  1  0.28576900  0.47318400  0.84479000  1
  Cr  Cr15  1  0.27708100  0.02536800  0.84419000  1
  Cr  Cr16  1  0.28904100  0.75059800  0.55751300  1
  Cr  Cr17  1  0.40564400  0.25057500  0.24716700  1
  Cr  Cr18  1  0.59224100  0.74872100  0.75216900  1
  Cr  Cr19  1  0.71796100  0.24966200  0.44168800  1
  Cr  Cr20  1  0.72232300  0.52553900  0.15612100  1
  Cr  Cr21  1  0.72104400  0.97316600  0.15354600  1
  Cr  Cr22  1  0.75816300  0.92677000  0.47806100  1
  Cr  Cr23  1  0.75773500  0.57324300  0.47815300  1
  Cr  Cr24  1  0.75111800  0.43031400  0.97305800  1
  Cr  Cr25  1  0.77746200  0.47251700  0.65661600  1
  Cr  Cr26  1  0.77640000  0.02902200  0.65752400  1
  Cr  Cr27  1  0.77909500  0.75020900  0.94371100  1
  O  O28  1  0.05369500  0.76023700  0.00593500  1
  O  O29  1  0.05407700  0.38221700  0.63025800  1
  O  O30  1  0.05441800  0.11835100  0.63320300  1
  O  O31  1  0.10925800  0.36852100  0.78259200  1
  O  O32  1  0.08810600  0.11954000  0.78904100  1
  O  O33  1  0.08912300  0.88383900  0.53232400  1
  O  O34  1  0.08897300  0.61649700  0.53244300  1
  O  O35  1  0.09208800  0.99049300  0.92373500  1
  O  O36  1  0.07534800  0.50140700  0.92193100  1
  O  O37  1  0.17059200  0.25027500  0.15735100  1
  O  O38  1  0.17123500  0.38526500  0.29839400  1
  O  O39  1  0.17098800  0.11410100  0.29817800  1
  O  O40  1  0.35119400  0.88524600  0.79600600  1
  O  O41  1  0.34926600  0.61667500  0.79606100  1
  O  O42  1  0.34785500  0.75046100  0.65408000  1
  O  O43  1  0.42123000  0.50189700  0.42340200  1
  O  O44  1  0.42180000  0.99773100  0.42304400  1
  O  O45  1  0.40280700  0.11066500  0.03427600  1
  O  O46  1  0.42719600  0.38053800  0.03400200  1
  O  O47  1  0.39791600  0.87462600  0.28927300  1
  O  O48  1  0.40051500  0.62571700  0.29151800  1
  O  O49  1  0.44314900  0.89110800  0.12509600  1
  O  O50  1  0.45512900  0.60738400  0.13123500  1
  O  O51  1  0.45627800  0.25021700  0.49750700  1
  O  O52  1  0.57500900  0.74998900  0.49141400  1
  O  O53  1  0.56026200  0.38335200  0.87665500  1
  O  O54  1  0.54434500  0.10603800  0.86956200  1
  O  O55  1  0.56685000  0.37566700  0.70897600  1
  O  O56  1  0.56152900  0.12956200  0.70747600  1
  O  O57  1  0.57255000  0.88044100  0.96680500  1
  O  O58  1  0.59738900  0.61058200  0.96574000  1
  O  O59  1  0.59575500  0.99014900  0.57262800  1
  O  O60  1  0.59498500  0.51086500  0.57266600  1
  O  O61  1  0.63952100  0.24901800  0.34630700  1
  O  O62  1  0.64622600  0.38505000  0.20548300  1
  O  O63  1  0.64674700  0.11358100  0.20234400  1
  O  O64  1  0.82659300  0.88388300  0.70566400  1
  O  O65  1  0.83126100  0.61768600  0.70513800  1
  O  O66  1  0.82683100  0.75047000  0.84425100  1
  O  O67  1  0.90515800  0.49051600  0.07726700  1
  O  O68  1  0.91695100  0.00450800  0.07797600  1
  O  O69  1  0.90118300  0.38381400  0.46264900  1
  O  O70  1  0.90137700  0.11618400  0.46284900  1
  O  O71  1  0.89398100  0.87805400  0.20994800  1
  O  O72  1  0.90993300  0.61990000  0.21112800  1
  O  O73  1  0.94515300  0.89402700  0.37313200  1
  O  O74  1  0.94472000  0.60602800  0.37408600  1
  O  O75  1  0.94846400  0.25942600  0.99526000  1
