# generated using pymatgen
data_LiMnP2O7
_symmetry_space_group_name_H-M   'P 1'
_cell_length_a   9.74282900
_cell_length_b   9.79540378
_cell_length_c   11.12347069
_cell_angle_alpha   101.58971374
_cell_angle_beta   90.03556175
_cell_angle_gamma   91.48949246
_symmetry_Int_Tables_number   1
_chemical_formula_structural   LiMnP2O7
_chemical_formula_sum   'Li8 Mn8 P16 O56'
_cell_volume   1039.55396571
_cell_formula_units_Z   8
loop_
 _symmetry_equiv_pos_site_id
 _symmetry_equiv_pos_as_xyz
  1  'x, y, z'
loop_
 _atom_site_type_symbol
 _atom_site_label
 _atom_site_symmetry_multiplicity
 _atom_site_fract_x
 _atom_site_fract_y
 _atom_site_fract_z
 _atom_site_occupancy
  Li  Li0  1  0.29194000  0.11538300  0.45178700  1
  Li  Li1  1  0.89699100  0.08917600  0.02192400  1
  Li  Li2  1  0.40331000  0.41736700  0.97423100  1
  Li  Li3  1  0.03184800  0.40498700  0.50648100  1
  Li  Li4  1  0.89116800  0.65288700  0.04132300  1
  Li  Li5  1  0.10919600  0.90967000  0.97930100  1
  Li  Li6  1  0.42184800  0.83006600  0.45911400  1
  Li  Li7  1  0.71696100  0.88698000  0.54976700  1
  Mn  Mn8  1  0.07217000  0.19727000  0.67112800  1
  Mn  Mn9  1  0.77246400  0.27686300  0.83621800  1
  Mn  Mn10  1  0.29143100  0.23678800  0.17115700  1
  Mn  Mn11  1  0.57733300  0.29986700  0.33265500  1
  Mn  Mn12  1  0.42392600  0.70081700  0.67633000  1
  Mn  Mn13  1  0.70720900  0.76018800  0.82806600  1
  Mn  Mn14  1  0.22951900  0.72001800  0.16331600  1
  Mn  Mn15  1  0.92977300  0.80345200  0.33497600  1
  P  P16  1  0.55273100  0.02069900  0.75027500  1
  P  P17  1  0.28893900  0.11981200  0.88071900  1
  P  P18  1  0.06949200  0.06065000  0.24503000  1
  P  P19  1  0.85085200  0.12891700  0.43521000  1
  P  P20  1  0.34983800  0.37989200  0.57916300  1
  P  P21  1  0.57686300  0.42993300  0.75851800  1
  P  P22  1  0.93967000  0.52912300  0.75460000  1
  P  P23  1  0.79110400  0.38105500  0.11549400  1
  P  P24  1  0.21035400  0.61439700  0.88290900  1
  P  P25  1  0.06414700  0.46279100  0.23970700  1
  P  P26  1  0.42474100  0.56665600  0.24079900  1
  P  P27  1  0.65071900  0.62242100  0.41760800  1
  P  P28  1  0.14736200  0.87295200  0.56485900  1
  P  P29  1  0.93164500  0.93625000  0.75617400  1
  P  P30  1  0.71312300  0.88217300  0.11850200  1
  P  P31  1  0.44561300  0.97432700  0.24179300  1
  O  O32  1  0.57307700  0.00688500  0.61511400  1
  O  O33  1  0.16123200  0.02636900  0.55312800  1
  O  O34  1  0.92145000  0.08510800  0.72823800  1
  O  O35  1  0.66004400  0.10347100  0.83838300  1
  O  O36  1  0.41057900  0.09696300  0.78020200  1
  O  O37  1  0.17800000  0.19114100  0.81626900  1
  O  O38  1  0.34625000  0.22626400  0.99492000  1
  O  O39  1  0.74964600  0.02332800  0.09729300  1
  O  O40  1  0.93365700  0.12663600  0.30717100  1
  O  O41  1  0.06335800  0.06327900  0.11016100  1
  O  O42  1  0.45882000  0.12944900  0.21788000  1
  O  O43  1  0.71546500  0.19033500  0.41438500  1
  O  O44  1  0.19282400  0.15525000  0.30281900  1
  O  O45  1  0.94463400  0.22059600  0.53455500  1
  O  O46  1  0.42012900  0.28966500  0.46910400  1
  O  O47  1  0.68940200  0.33182400  0.69469400  1
  O  O48  1  0.20335900  0.32181300  0.59430100  1
  O  O49  1  0.94181300  0.38595800  0.79833600  1
  O  O50  1  0.43073800  0.36724300  0.70183500  1
  O  O51  1  0.57888000  0.41520200  0.89136600  1
  O  O52  1  0.24118000  0.47664100  0.91052900  1
  O  O53  1  0.83703300  0.26887200  0.00155800  1
  O  O54  1  0.66872900  0.32188300  0.17883900  1
  O  O55  1  0.91359500  0.39151300  0.21521100  1
  O  O56  1  0.41053400  0.41908400  0.26734200  1
  O  O57  1  0.15907800  0.37023500  0.14600900  1
  O  O58  1  0.91500100  0.52145500  0.62152900  1
  O  O59  1  0.65462400  0.47033800  0.43155300  1
  O  O60  1  0.34661500  0.53553400  0.57386200  1
  O  O61  1  0.09715100  0.46888200  0.37114600  1
  O  O62  1  0.84741500  0.62708000  0.84885300  1
  O  O63  1  0.58815200  0.57960300  0.73392800  1
  O  O64  1  0.09045800  0.60005800  0.78218900  1
  O  O65  1  0.32666500  0.69162300  0.82751100  1
  O  O66  1  0.15044200  0.71827900  0.99913600  1
  O  O67  1  0.77412700  0.51828300  0.08072200  1
  O  O68  1  0.40713200  0.57709000  0.10780600  1
  O  O69  1  0.57394200  0.62594700  0.28914100  1
  O  O70  1  0.05922000  0.60848500  0.19897200  1
  O  O71  1  0.79198000  0.68914600  0.40632200  1
  O  O72  1  0.32197900  0.67622200  0.30967000  1
  O  O73  1  0.56742000  0.71564700  0.51952100  1
  O  O74  1  0.06148900  0.78163000  0.46180900  1
  O  O75  1  0.80712900  0.84307300  0.69913400  1
  O  O76  1  0.28706700  0.81341800  0.58283900  1
  O  O77  1  0.54026800  0.86638000  0.78353700  1
  O  O78  1  0.94103300  0.93254000  0.89081800  1
  O  O79  1  0.06717500  0.86961100  0.69176400  1
  O  O80  1  0.25265800  0.98127100  0.90869500  1
  O  O81  1  0.66491800  0.77529800  0.00284900  1
  O  O82  1  0.82676800  0.80813100  0.18098300  1
  O  O83  1  0.58924700  0.89891300  0.21725900  1
  O  O84  1  0.34063400  0.89135100  0.15042800  1
  O  O85  1  0.07992200  0.91084000  0.27193800  1
  O  O86  1  0.84004000  0.97669100  0.44990300  1
  O  O87  1  0.41575100  0.97674400  0.37483700  1
