# generated using pymatgen
data_LiFeSiO4
_symmetry_space_group_name_H-M   'P 1'
_cell_length_a   9.96261416
_cell_length_b   9.96261416
_cell_length_c   24.54993500
_cell_angle_alpha   90.00000000
_cell_angle_beta   90.00000000
_cell_angle_gamma   120.00000108
_symmetry_Int_Tables_number   1
_chemical_formula_structural   LiFeSiO4
_chemical_formula_sum   'Li24 Fe24 Si24 O96'
_cell_volume   2110.21932392
_cell_formula_units_Z   24
loop_
 _symmetry_equiv_pos_site_id
 _symmetry_equiv_pos_as_xyz
  1  'x, y, z'
loop_
 _atom_site_type_symbol
 _atom_site_label
 _atom_site_symmetry_multiplicity
 _atom_site_fract_x
 _atom_site_fract_y
 _atom_site_fract_z
 _atom_site_occupancy
  Li  Li0  1  0.02851700  0.96713300  0.69223600  1
  Li  Li1  1  0.03681500  0.59710600  0.03373300  1
  Li  Li2  1  0.05904000  0.45038900  0.19409100  1
  Li  Li3  1  0.04704800  0.46946600  0.84794500  1
  Li  Li4  1  0.39134900  0.94096000  0.86075800  1
  Li  Li5  1  0.42241800  0.95295200  0.51461200  1
  Li  Li6  1  0.03286700  0.06138400  0.02556900  1
  Li  Li7  1  0.06138400  0.02851700  0.85890300  1
  Li  Li8  1  0.56029200  0.96318500  0.70040000  1
  Li  Li9  1  0.40289400  0.43970800  0.36706600  1
  Li  Li10  1  0.53053400  0.57758200  0.18127900  1
  Li  Li11  1  0.54961100  0.60865100  0.52742400  1
  Li  Li12  1  0.45038900  0.39134900  0.02742400  1
  Li  Li13  1  0.46946600  0.42241800  0.68127900  1
  Li  Li14  1  0.59710600  0.56029200  0.86706600  1
  Li  Li15  1  0.43970800  0.03681500  0.20040000  1
  Li  Li16  1  0.93861600  0.97148300  0.35890300  1
  Li  Li17  1  0.96713300  0.93861600  0.52556900  1
  Li  Li18  1  0.57758200  0.04704800  0.01461200  1
  Li  Li19  1  0.60865100  0.05904000  0.36075800  1
  Li  Li20  1  0.95295200  0.53053400  0.34794500  1
  Li  Li21  1  0.94096000  0.54961100  0.69409100  1
  Li  Li22  1  0.96318500  0.40289400  0.53373300  1
  Li  Li23  1  0.97148300  0.03286700  0.19223600  1
  Fe  Fe24  1  0.09627900  0.82242600  0.27019700  1
  Fe  Fe25  1  0.07756000  0.75302400  0.91651800  1
  Fe  Fe26  1  0.11833500  0.74149600  0.59158100  1
  Fe  Fe27  1  0.30735500  0.67324300  0.75599900  1
  Fe  Fe28  1  0.32675700  0.63411200  0.08933200  1
  Fe  Fe29  1  0.36588800  0.69264500  0.42266600  1
  Fe  Fe30  1  0.17757400  0.27385300  0.60353100  1
  Fe  Fe31  1  0.25850400  0.37683900  0.92491500  1
  Fe  Fe32  1  0.24697600  0.32453600  0.24985100  1
  Fe  Fe33  1  0.62316100  0.88166500  0.25824800  1
  Fe  Fe34  1  0.67546400  0.92244000  0.58318400  1
  Fe  Fe35  1  0.27385300  0.09627900  0.43686400  1
  Fe  Fe36  1  0.72614700  0.90372100  0.93686400  1
  Fe  Fe37  1  0.32453600  0.07756000  0.08318400  1
  Fe  Fe38  1  0.37683900  0.11833500  0.75824800  1
  Fe  Fe39  1  0.75302400  0.67546400  0.74985100  1
  Fe  Fe40  1  0.74149600  0.62316100  0.42491500  1
  Fe  Fe41  1  0.82242600  0.72614700  0.10353100  1
  Fe  Fe42  1  0.63411200  0.30735500  0.92266600  1
  Fe  Fe43  1  0.67324300  0.36588800  0.58933200  1
  Fe  Fe44  1  0.69264500  0.32675700  0.25599900  1
  Fe  Fe45  1  0.88166500  0.25850400  0.09158100  1
  Fe  Fe46  1  0.92244000  0.24697600  0.41651800  1
  Fe  Fe47  1  0.90372100  0.17757400  0.77019700  1
  Si  Si48  1  0.08623000  0.79029300  0.78855200  1
  Si  Si49  1  0.07564500  0.74670100  0.46537800  1
  Si  Si50  1  0.13556700  0.76686600  0.14214100  1
  Si  Si51  1  0.27622600  0.64295100  0.29790100  1
  Si  Si52  1  0.36672400  0.72377400  0.96456700  1
  Si  Si53  1  0.35704900  0.63327600  0.63123400  1
  Si  Si54  1  0.23313400  0.36870100  0.47547500  1
  Si  Si55  1  0.20970700  0.29593700  0.12188600  1
  Si  Si56  1  0.25329900  0.32894400  0.79871200  1
  Si  Si57  1  0.63129900  0.86443300  0.80880800  1
  Si  Si58  1  0.67105600  0.92435500  0.13204500  1
  Si  Si59  1  0.70406300  0.91377000  0.45521900  1
  Si  Si60  1  0.29593700  0.08623000  0.95521900  1
  Si  Si61  1  0.32894400  0.07564500  0.63204500  1
  Si  Si62  1  0.36870100  0.13556700  0.30880800  1
  Si  Si63  1  0.74670100  0.67105600  0.29871200  1
  Si  Si64  1  0.79029300  0.70406300  0.62188600  1
  Si  Si65  1  0.76686600  0.63129900  0.97547500  1
  Si  Si66  1  0.64295100  0.36672400  0.13123400  1
  Si  Si67  1  0.63327600  0.27622600  0.46456700  1
  Si  Si68  1  0.72377400  0.35704900  0.79790100  1
  Si  Si69  1  0.86443300  0.23313400  0.64214100  1
  Si  Si70  1  0.92435500  0.25329900  0.96537800  1
  Si  Si71  1  0.91377000  0.20970700  0.28855200  1
  O  O72  1  0.02268800  0.75038300  0.09038700  1
  O  O73  1  0.09712000  0.92316700  0.47074000  1
  O  O74  1  0.01551900  0.68540100  0.84421600  1
  O  O75  1  0.12978800  0.96499100  0.92525500  1
  O  O76  1  0.04140000  0.75941700  0.19767000  1
  O  O77  1  0.01474900  0.65917800  0.52462300  1
  O  O78  1  0.23694500  0.95784400  0.80735600  1
  O  O79  1  0.12780700  0.67076500  0.30582900  1
  O  O80  1  0.12610400  0.68791500  0.74614000  1
  O  O81  1  0.29787300  0.94528100  0.58458700  1
  O  O82  1  0.30200400  0.93273600  0.13726200  1
  O  O83  1  0.17307200  0.62358100  0.13894400  1
  O  O84  1  0.24865000  0.77266600  0.45359500  1
  O  O85  1  0.18899400  0.60900100  0.61184500  1
  O  O86  1  0.06726400  0.36926800  0.47059500  1
  O  O87  1  0.27249700  0.76341600  0.91793700  1
  O  O88  1  0.05471900  0.35259100  0.91792000  1
  O  O89  1  0.04215600  0.27910100  0.14069000  1
  O  O90  1  0.03500900  0.16479700  0.25858900  1
  O  O91  1  0.07683300  0.17395300  0.80407400  1
  O  O92  1  0.26970700  0.68405600  0.02228900  1
  O  O93  1  0.23658400  0.50908100  0.25127000  1
  O  O94  1  0.31594400  0.58565100  0.35562200  1
  O  O95  1  0.22733400  0.47598400  0.78692800  1
  O  O96  1  0.41434900  0.73029300  0.68895500  1
  O  O97  1  0.42000700  0.81100600  0.27851200  1
  O  O98  1  0.45050900  0.82692800  0.80561000  1
  O  O99  1  0.31208500  0.43819000  0.07947300  1
  O  O100  1  0.32923500  0.45704100  0.63916200  1
  O  O101  1  0.37641900  0.54949100  0.47227700  1
  O  O102  1  0.24058300  0.28198200  0.53100400  1
  O  O103  1  0.39099900  0.57999300  0.94517900  1
  O  O104  1  0.49091900  0.72750300  0.58460400  1
  O  O105  1  0.54295900  0.87219300  0.97249500  1
  O  O106  1  0.56181000  0.87389600  0.41280600  1
  O  O107  1  0.16479700  0.12978800  0.09192200  1
  O  O108  1  0.24961700  0.27230500  0.42372000  1
  O  O109  1  0.31459900  0.33011800  0.17754900  1
  O  O110  1  0.17395300  0.09712000  0.63740700  1
  O  O111  1  0.34082200  0.35557100  0.85795600  1
  O  O112  1  0.52401600  0.75135000  0.12026100  1
  O  O113  1  0.27910100  0.23694500  0.97402300  1
  O  O114  1  0.64442900  0.98525100  0.19129000  1
  O  O115  1  0.35259100  0.29787300  0.75125300  1
  O  O116  1  0.36926800  0.30200400  0.30392800  1
  O  O117  1  0.66988200  0.98448100  0.51088300  1
  O  O118  1  0.71801800  0.95860000  0.86433700  1
  O  O119  1  0.27230500  0.02268800  0.25705400  1
  O  O120  1  0.72769500  0.97731200  0.75705400  1
  O  O121  1  0.28198200  0.04140000  0.36433700  1
  O  O122  1  0.33011800  0.01551900  0.01088300  1
  O  O123  1  0.63073200  0.69799600  0.80392800  1
  O  O124  1  0.64740900  0.70212700  0.25125300  1
  O  O125  1  0.35557100  0.01474900  0.69129000  1
  O  O126  1  0.72089900  0.76305500  0.47402300  1
  O  O127  1  0.47598400  0.24865000  0.62026100  1
  O  O128  1  0.65917800  0.64442900  0.35795600  1
  O  O129  1  0.82604700  0.90288000  0.13740700  1
  O  O130  1  0.68540100  0.66988200  0.67754900  1
  O  O131  1  0.75038300  0.72769500  0.92372000  1
  O  O132  1  0.83520300  0.87021200  0.59192200  1
  O  O133  1  0.43819000  0.12610400  0.91280600  1
  O  O134  1  0.45704100  0.12780700  0.47249500  1
  O  O135  1  0.50908100  0.27249700  0.08460400  1
  O  O136  1  0.60900100  0.42000700  0.44517900  1
  O  O137  1  0.75941700  0.71801800  0.03100400  1
  O  O138  1  0.62358100  0.45050900  0.97227700  1
  O  O139  1  0.67076500  0.54295900  0.13916200  1
  O  O140  1  0.68791500  0.56181000  0.57947300  1
  O  O141  1  0.54949100  0.17307200  0.30561000  1
  O  O142  1  0.57999300  0.18899400  0.77851200  1
  O  O143  1  0.58565100  0.26970700  0.18895500  1
  O  O144  1  0.77266600  0.52401600  0.28692800  1
  O  O145  1  0.68405600  0.41434900  0.85562200  1
  O  O146  1  0.76341600  0.49091900  0.75127000  1
  O  O147  1  0.73029300  0.31594400  0.52228900  1
  O  O148  1  0.92316700  0.82604700  0.30407400  1
  O  O149  1  0.96499100  0.83520300  0.75858900  1
  O  O150  1  0.95784400  0.72089900  0.64069000  1
  O  O151  1  0.94528100  0.64740900  0.41792000  1
  O  O152  1  0.72750300  0.23658400  0.41793700  1
  O  O153  1  0.93273600  0.63073200  0.97059500  1
  O  O154  1  0.81100600  0.39099900  0.11184500  1
  O  O155  1  0.75135000  0.22733400  0.95359500  1
  O  O156  1  0.82692800  0.37641900  0.63894400  1
  O  O157  1  0.69799600  0.06726400  0.63726200  1
  O  O158  1  0.70212700  0.05471900  0.08458700  1
  O  O159  1  0.87389600  0.31208500  0.24614000  1
  O  O160  1  0.87219300  0.32923500  0.80582900  1
  O  O161  1  0.76305500  0.04215600  0.30735600  1
  O  O162  1  0.98525100  0.34082200  0.02462300  1
  O  O163  1  0.95860000  0.24058300  0.69767000  1
  O  O164  1  0.87021200  0.03500900  0.42525500  1
  O  O165  1  0.98448100  0.31459900  0.34421600  1
  O  O166  1  0.90288000  0.07683300  0.97074000  1
  O  O167  1  0.97731200  0.24961700  0.59038700  1
