# generated using pymatgen
data_Li12Mn5V3(PO4)12
_symmetry_space_group_name_H-M   'P 1'
_cell_length_a   8.67749400
_cell_length_b   8.69191917
_cell_length_c   12.31973856
_cell_angle_alpha   89.77469341
_cell_angle_beta   88.20355649
_cell_angle_gamma   89.97028396
_symmetry_Int_Tables_number   1
_chemical_formula_structural   Li12Mn5V3(PO4)12
_chemical_formula_sum   'Li12 Mn5 V3 P12 O48'
_cell_volume   928.74095305
_cell_formula_units_Z   1
loop_
 _symmetry_equiv_pos_site_id
 _symmetry_equiv_pos_as_xyz
  1  'x, y, z'
loop_
 _atom_site_type_symbol
 _atom_site_label
 _atom_site_symmetry_multiplicity
 _atom_site_fract_x
 _atom_site_fract_y
 _atom_site_fract_z
 _atom_site_occupancy
  Li  Li0  1  0.92306300  0.08046100  0.69717800  1
  Li  Li1  1  0.91822200  0.69745900  0.76150400  1
  Li  Li2  1  0.79183700  0.78323000  0.17520500  1
  Li  Li3  1  0.70878200  0.28049900  0.32580800  1
  Li  Li4  1  0.58450500  0.19405600  0.73903400  1
  Li  Li5  1  0.57498800  0.58238600  0.80279300  1
  Li  Li6  1  0.42287900  0.41900800  0.19768800  1
  Li  Li7  1  0.41711800  0.80383400  0.26317100  1
  Li  Li8  1  0.29179100  0.71695300  0.67494700  1
  Li  Li9  1  0.20729000  0.21655600  0.82707700  1
  Li  Li10  1  0.08722800  0.30502700  0.23818000  1
  Li  Li11  1  0.07722000  0.92009400  0.30142200  1
  Mn  Mn12  1  0.74768600  0.03457500  0.89670400  1
  Mn  Mn13  1  0.74763500  0.95941800  0.39078700  1
  Mn  Mn14  1  0.24721900  0.54095600  0.89075900  1
  Mn  Mn15  1  0.25352100  0.96484500  0.10418000  1
  Mn  Mn16  1  0.24854000  0.46596300  0.39650600  1
  V  V17  1  0.75246000  0.53094400  0.60843300  1
  V  V18  1  0.75251000  0.45982400  0.11113700  1
  V  V19  1  0.25279600  0.03773600  0.61004600  1
  P  P20  1  0.96372000  0.25076000  0.49385200  1
  P  P21  1  0.89480400  0.38293000  0.85227800  1
  P  P22  1  0.89837500  0.10322600  0.15237100  1
  P  P23  1  0.60308200  0.60059200  0.35124500  1
  P  P24  1  0.60375200  0.88360500  0.64287300  1
  P  P25  1  0.53954900  0.74808200  0.00713200  1
  P  P26  1  0.46288000  0.24820100  0.99473000  1
  P  P27  1  0.39606100  0.11718000  0.35551900  1
  P  P28  1  0.39577800  0.39610300  0.65341200  1
  P  P29  1  0.10047700  0.89856100  0.84731100  1
  P  P30  1  0.10402400  0.61671800  0.14198500  1
  P  P31  1  0.03907400  0.75212100  0.50702000  1
  O  O32  1  0.95559100  0.86821000  0.43394100  1
  O  O33  1  0.91960600  0.88840600  0.85148200  1
  O  O34  1  0.93190400  0.68184500  0.59654100  1
  O  O35  1  0.92855000  0.59434300  0.16529500  1
  O  O36  1  0.89428800  0.36951800  0.57297400  1
  O  O37  1  0.85586000  0.21231900  0.82027000  1
  O  O38  1  0.85116100  0.41079800  0.97128500  1
  O  O39  1  0.85746300  0.98202300  0.24417000  1
  O  O40  1  0.84317700  0.26684300  0.18754600  1
  O  O41  1  0.83136800  0.17594400  0.43316300  1
  O  O42  1  0.82939900  0.04657100  0.04911600  1
  O  O43  1  0.80407100  0.50020600  0.78131700  1
  O  O44  1  0.69710400  0.00296600  0.70681000  1
  O  O45  1  0.67165300  0.54967000  0.45677600  1
  O  O46  1  0.67093100  0.66790600  0.06814200  1
  O  O47  1  0.65490800  0.76144500  0.30944600  1
  O  O48  1  0.63571900  0.90167300  0.51964600  1
  O  O49  1  0.64171100  0.71428900  0.67810900  1
  O  O50  1  0.64330300  0.47797500  0.26151000  1
  O  O51  1  0.60863100  0.86690800  0.92694600  1
  O  O52  1  0.57087900  0.17796100  0.90373200  1
  O  O53  1  0.57527000  0.38753700  0.65061600  1
  O  O54  1  0.57082800  0.09885400  0.33146300  1
  O  O55  1  0.54927600  0.36496400  0.06578600  1
  O  O56  1  0.45475700  0.63317200  0.93478800  1
  O  O57  1  0.42862300  0.90491700  0.66723700  1
  O  O58  1  0.42178100  0.61050900  0.35405000  1
  O  O59  1  0.43243200  0.81779900  0.09860900  1
  O  O60  1  0.39829700  0.12920400  0.07771900  1
  O  O61  1  0.35685100  0.51821600  0.74540200  1
  O  O62  1  0.35687800  0.28762600  0.32171100  1
  O  O63  1  0.35598800  0.09390700  0.47651200  1
  O  O64  1  0.34207200  0.23261200  0.68924000  1
  O  O65  1  0.33079800  0.32390700  0.93395100  1
  O  O66  1  0.32636400  0.45431300  0.55025900  1
  O  O67  1  0.30308800  0.99740300  0.29123700  1
  O  O68  1  0.19770600  0.49824300  0.20696000  1
  O  O69  1  0.17128000  0.95352700  0.95085400  1
  O  O70  1  0.17223200  0.83269500  0.56721000  1
  O  O71  1  0.15283800  0.73727400  0.80744300  1
  O  O72  1  0.13948000  0.02034400  0.75601800  1
  O  O73  1  0.13633900  0.59904900  0.01919400  1
  O  O74  1  0.14125200  0.78634600  0.17778200  1
  O  O75  1  0.10916800  0.63310600  0.42686600  1
  O  O76  1  0.07020500  0.40179600  0.82991900  1
  O  O77  1  0.07218100  0.32313500  0.40321200  1
  O  O78  1  0.07886200  0.11450800  0.15009000  1
  O  O79  1  0.04900900  0.13531800  0.56536800  1
