# generated using pymatgen
data_Li2FeP3O10
_symmetry_space_group_name_H-M   'P 1'
_cell_length_a   8.03206900
_cell_length_b   9.74047700
_cell_length_c   12.13953628
_cell_angle_alpha   83.60022392
_cell_angle_beta   90.00000000
_cell_angle_gamma   90.00000000
_symmetry_Int_Tables_number   1
_chemical_formula_structural   Li2FeP3O10
_chemical_formula_sum   'Li8 Fe4 P12 O40'
_cell_volume   943.83247533
_cell_formula_units_Z   4
loop_
 _symmetry_equiv_pos_site_id
 _symmetry_equiv_pos_as_xyz
  1  'x, y, z'
loop_
 _atom_site_type_symbol
 _atom_site_label
 _atom_site_symmetry_multiplicity
 _atom_site_fract_x
 _atom_site_fract_y
 _atom_site_fract_z
 _atom_site_occupancy
  Li  Li0  1  0.53970900  0.61419300  0.14878400  1
  Li  Li1  1  0.96029100  0.11419300  0.14878400  1
  Li  Li2  1  0.88717500  0.09135600  0.44736300  1
  Li  Li3  1  0.61282500  0.59135600  0.44736300  1
  Li  Li4  1  0.38717500  0.40864400  0.55263700  1
  Li  Li5  1  0.11282500  0.90864400  0.55263700  1
  Li  Li6  1  0.03970900  0.88580700  0.85121600  1
  Li  Li7  1  0.46029100  0.38580700  0.85121600  1
  Fe  Fe8  1  0.14352200  0.37208800  0.16931200  1
  Fe  Fe9  1  0.35647800  0.87208800  0.16931200  1
  Fe  Fe10  1  0.64352200  0.12791200  0.83068800  1
  Fe  Fe11  1  0.85647800  0.62791200  0.83068800  1
  P  P12  1  0.43197300  0.19598500  0.06298500  1
  P  P13  1  0.06802700  0.69598500  0.06298500  1
  P  P14  1  0.57627400  0.08692800  0.27212000  1
  P  P15  1  0.92372600  0.58692800  0.27212000  1
  P  P16  1  0.21604600  0.07377000  0.33241500  1
  P  P17  1  0.28395400  0.57377000  0.33241500  1
  P  P18  1  0.71604600  0.42623000  0.66758500  1
  P  P19  1  0.78395400  0.92623000  0.66758500  1
  P  P20  1  0.07627400  0.41307200  0.72788000  1
  P  P21  1  0.42372600  0.91307200  0.72788000  1
  P  P22  1  0.93197300  0.30401500  0.93701500  1
  P  P23  1  0.56802700  0.80401500  0.93701500  1
  O  O24  1  0.33517200  0.06129200  0.08329500  1
  O  O25  1  0.00541400  0.28075100  0.05385300  1
  O  O26  1  0.34131700  0.32861400  0.08261900  1
  O  O27  1  0.16482800  0.56129200  0.08329500  1
  O  O28  1  0.49458600  0.78075100  0.05385300  1
  O  O29  1  0.15868300  0.82861400  0.08261900  1
  O  O30  1  0.58373900  0.18548300  0.15425900  1
  O  O31  1  0.91626100  0.68548300  0.15425900  1
  O  O32  1  0.12120300  0.17629200  0.24850500  1
  O  O33  1  0.94022000  0.43890300  0.24513000  1
  O  O34  1  0.27906500  0.42969400  0.29319800  1
  O  O35  1  0.37879700  0.67629200  0.24850500  1
  O  O36  1  0.55978000  0.93890300  0.24513000  1
  O  O37  1  0.22093500  0.92969400  0.29319800  1
  O  O38  1  0.40912100  0.13090100  0.33425600  1
  O  O39  1  0.72638400  0.12384900  0.33473500  1
  O  O40  1  0.09087900  0.63090100  0.33425600  1
  O  O41  1  0.77361600  0.62384900  0.33473500  1
  O  O42  1  0.14145100  0.07153900  0.44709000  1
  O  O43  1  0.35854900  0.57153900  0.44709000  1
  O  O44  1  0.64145100  0.42846100  0.55291000  1
  O  O45  1  0.85854900  0.92846100  0.55291000  1
  O  O46  1  0.22638400  0.37615100  0.66526500  1
  O  O47  1  0.90912100  0.36909900  0.66574400  1
  O  O48  1  0.27361600  0.87615100  0.66526500  1
  O  O49  1  0.59087900  0.86909900  0.66574400  1
  O  O50  1  0.77906500  0.07030600  0.70680200  1
  O  O51  1  0.44022000  0.06109700  0.75487000  1
  O  O52  1  0.62120300  0.32370800  0.75149500  1
  O  O53  1  0.72093500  0.57030600  0.70680200  1
  O  O54  1  0.05978000  0.56109700  0.75487000  1
  O  O55  1  0.87879700  0.82370800  0.75149500  1
  O  O56  1  0.08373900  0.31451700  0.84574100  1
  O  O57  1  0.41626100  0.81451700  0.84574100  1
  O  O58  1  0.84131700  0.17138600  0.91738100  1
  O  O59  1  0.50541400  0.21924900  0.94614700  1
  O  O60  1  0.83517200  0.43870800  0.91670500  1
  O  O61  1  0.65868300  0.67138600  0.91738100  1
  O  O62  1  0.99458600  0.71924900  0.94614700  1
  O  O63  1  0.66482800  0.93870800  0.91670500  1
