# generated using pymatgen
data_LiMn3(BO3)3
_symmetry_space_group_name_H-M   'P 1'
_cell_length_a   6.17377700
_cell_length_b   7.76735068
_cell_length_c   9.09388453
_cell_angle_alpha   111.83259380
_cell_angle_beta   107.41869007
_cell_angle_gamma   96.50833702
_symmetry_Int_Tables_number   1
_chemical_formula_structural   LiMn3(BO3)3
_chemical_formula_sum   'Li2 Mn6 B6 O18'
_cell_volume   373.61153873
_cell_formula_units_Z   2
loop_
 _symmetry_equiv_pos_site_id
 _symmetry_equiv_pos_as_xyz
  1  'x, y, z'
loop_
 _atom_site_type_symbol
 _atom_site_label
 _atom_site_symmetry_multiplicity
 _atom_site_fract_x
 _atom_site_fract_y
 _atom_site_fract_z
 _atom_site_occupancy
  Li  Li0  1  0.65564000  0.32923200  0.05600900  1
  Li  Li1  1  0.34436000  0.67076800  0.94399100  1
  Mn  Mn2  1  0.34561300  0.60221100  0.59049000  1
  Mn  Mn3  1  0.29910800  0.03156200  0.71199600  1
  Mn  Mn4  1  0.03509200  0.27990700  0.93949700  1
  Mn  Mn5  1  0.96490800  0.72009300  0.06050300  1
  Mn  Mn6  1  0.70089200  0.96843800  0.28800400  1
  Mn  Mn7  1  0.65438700  0.39778900  0.40951000  1
  B  B8  1  0.69117200  0.96145100  0.94049600  1
  B  B9  1  0.61255500  0.36169300  0.72591900  1
  B  B10  1  0.94193600  0.69592300  0.37932600  1
  B  B11  1  0.05806400  0.30407700  0.62067400  1
  B  B12  1  0.38744500  0.63830700  0.27408100  1
  B  B13  1  0.30882800  0.03854900  0.05950400  1
  O  O14  1  0.52700300  0.88956000  0.77277700  1
  O  O15  1  0.38253700  0.51952800  0.36088800  1
  O  O16  1  0.83947700  0.13863600  0.02176000  1
  O  O17  1  0.32201600  0.15700200  0.97516500  1
  O  O18  1  0.76572400  0.43073100  0.89399200  1
  O  O19  1  0.10750500  0.74923900  0.54105800  1
  O  O20  1  0.46641800  0.18323800  0.63775800  1
  O  O21  1  0.79113700  0.51642200  0.28765400  1
  O  O22  1  0.94645800  0.82718700  0.30852600  1
  O  O23  1  0.05354200  0.17281300  0.69147400  1
  O  O24  1  0.20886300  0.48357800  0.71234600  1
  O  O25  1  0.53358200  0.81676200  0.36224200  1
  O  O26  1  0.89249500  0.25076100  0.45894200  1
  O  O27  1  0.23427600  0.56926900  0.10600800  1
  O  O28  1  0.67798400  0.84299800  0.02483500  1
  O  O29  1  0.16052300  0.86136400  0.97824000  1
  O  O30  1  0.61746300  0.48047200  0.63911200  1
  O  O31  1  0.47299700  0.11044000  0.22722300  1
