# generated using pymatgen
data_LiMnPO4
_symmetry_space_group_name_H-M   'P 1'
_cell_length_a   5.15847000
_cell_length_b   10.25369100
_cell_length_c   13.93172000
_cell_angle_alpha   90.00000000
_cell_angle_beta   90.00000000
_cell_angle_gamma   90.00000000
_symmetry_Int_Tables_number   1
_chemical_formula_structural   LiMnPO4
_chemical_formula_sum   'Li8 Mn8 P8 O32'
_cell_volume   736.89544533
_cell_formula_units_Z   8
loop_
 _symmetry_equiv_pos_site_id
 _symmetry_equiv_pos_as_xyz
  1  'x, y, z'
loop_
 _atom_site_type_symbol
 _atom_site_label
 _atom_site_symmetry_multiplicity
 _atom_site_fract_x
 _atom_site_fract_y
 _atom_site_fract_z
 _atom_site_occupancy
  Li  Li0  1  0.92888300  0.03060200  0.49828300  1
  Li  Li1  1  0.55318800  0.22236900  0.24933300  1
  Li  Li2  1  0.55318800  0.27763100  0.74933300  1
  Li  Li3  1  0.92888300  0.46939800  0.99828300  1
  Li  Li4  1  0.07111700  0.53060200  0.49828300  1
  Li  Li5  1  0.44681200  0.72236900  0.24933300  1
  Li  Li6  1  0.44681200  0.77763100  0.74933300  1
  Li  Li7  1  0.07111700  0.96939800  0.99828300  1
  Mn  Mn8  1  0.05919800  0.03436200  0.24712700  1
  Mn  Mn9  1  0.55668100  0.21635600  0.99872200  1
  Mn  Mn10  1  0.55668100  0.28364400  0.49872200  1
  Mn  Mn11  1  0.05919800  0.46563800  0.74712700  1
  Mn  Mn12  1  0.94080200  0.53436200  0.24712700  1
  Mn  Mn13  1  0.44331900  0.71635600  0.99872200  1
  Mn  Mn14  1  0.44331900  0.78364400  0.49872200  1
  Mn  Mn15  1  0.94080200  0.96563800  0.74712700  1
  P  P16  1  0.43451500  0.03164600  0.62381100  1
  P  P17  1  0.05329500  0.21629300  0.87248900  1
  P  P18  1  0.05329500  0.28370700  0.37248900  1
  P  P19  1  0.43451500  0.46835400  0.12381100  1
  P  P20  1  0.56548500  0.53164600  0.62381100  1
  P  P21  1  0.94670500  0.71629300  0.87248900  1
  P  P22  1  0.94670500  0.78370700  0.37248900  1
  P  P23  1  0.56548500  0.96835400  0.12381100  1
  O  O24  1  0.86162100  0.99794300  0.11921600  1
  O  O25  1  0.56497400  0.97359400  0.53229100  1
  O  O26  1  0.45499100  0.03466900  0.21580700  1
  O  O27  1  0.99617300  0.06710600  0.87525900  1
  O  O28  1  0.48909200  0.18059300  0.62659500  1
  O  O29  1  0.93189800  0.22123200  0.46416100  1
  O  O30  1  0.93128600  0.27585800  0.78031200  1
  O  O31  1  0.34992600  0.24422500  0.87099400  1
  O  O32  1  0.34992600  0.25577500  0.37099400  1
  O  O33  1  0.93128600  0.22414200  0.28031200  1
  O  O34  1  0.93189800  0.27876800  0.96416100  1
  O  O35  1  0.48909200  0.31940700  0.12659500  1
  O  O36  1  0.99617300  0.43289400  0.37525900  1
  O  O37  1  0.45499100  0.46533100  0.71580700  1
  O  O38  1  0.56497400  0.52640600  0.03229100  1
  O  O39  1  0.86162100  0.50205700  0.61921600  1
  O  O40  1  0.13837900  0.49794300  0.11921600  1
  O  O41  1  0.43502600  0.47359400  0.53229100  1
  O  O42  1  0.54500900  0.53466900  0.21580700  1
  O  O43  1  0.00382700  0.56710600  0.87525900  1
  O  O44  1  0.51090800  0.68059300  0.62659500  1
  O  O45  1  0.06810200  0.72123200  0.46416100  1
  O  O46  1  0.06871400  0.77585800  0.78031200  1
  O  O47  1  0.65007400  0.74422500  0.87099400  1
  O  O48  1  0.65007400  0.75577500  0.37099400  1
  O  O49  1  0.06871400  0.72414200  0.28031200  1
  O  O50  1  0.06810200  0.77876800  0.96416100  1
  O  O51  1  0.51090800  0.81940700  0.12659500  1
  O  O52  1  0.00382700  0.93289400  0.37525900  1
  O  O53  1  0.54500900  0.96533100  0.71580700  1
  O  O54  1  0.43502600  0.02640600  0.03229100  1
  O  O55  1  0.13837900  0.00205700  0.61921600  1
