# generated using pymatgen
data_Li4V2Si4O13
_symmetry_space_group_name_H-M   'P 1'
_cell_length_a   5.02940500
_cell_length_b   13.81325500
_cell_length_c   14.15574500
_cell_angle_alpha   90.00000000
_cell_angle_beta   90.00000000
_cell_angle_gamma   90.00000000
_symmetry_Int_Tables_number   1
_chemical_formula_structural   Li4V2Si4O13
_chemical_formula_sum   'Li16 V8 Si16 O52'
_cell_volume   983.43434000
_cell_formula_units_Z   4
loop_
 _symmetry_equiv_pos_site_id
 _symmetry_equiv_pos_as_xyz
  1  'x, y, z'
loop_
 _atom_site_type_symbol
 _atom_site_label
 _atom_site_symmetry_multiplicity
 _atom_site_fract_x
 _atom_site_fract_y
 _atom_site_fract_z
 _atom_site_occupancy
  Li  Li0  1  0.18293900  0.04130000  0.21880800  1
  Li  Li1  1  0.66268500  0.10029000  0.91607600  1
  Li  Li2  1  0.64777300  0.14042400  0.11044800  1
  Li  Li3  1  0.25102300  0.20954200  0.83751800  1
  Li  Li4  1  0.75102300  0.29045800  0.33751800  1
  Li  Li5  1  0.14777300  0.35957600  0.61044800  1
  Li  Li6  1  0.16268500  0.39971000  0.41607600  1
  Li  Li7  1  0.68293900  0.45870000  0.71880800  1
  Li  Li8  1  0.31706100  0.54130000  0.21880800  1
  Li  Li9  1  0.83731500  0.60029000  0.91607600  1
  Li  Li10  1  0.85222700  0.64042400  0.11044800  1
  Li  Li11  1  0.24897700  0.70954200  0.83751800  1
  Li  Li12  1  0.74897700  0.79045800  0.33751800  1
  Li  Li13  1  0.35222700  0.85957600  0.61044800  1
  Li  Li14  1  0.33731500  0.89971000  0.41607600  1
  Li  Li15  1  0.81706100  0.95870000  0.71880800  1
  V  V16  1  0.35385000  0.07912200  0.62619300  1
  V  V17  1  0.18255600  0.17212900  0.42136700  1
  V  V18  1  0.68255600  0.32787100  0.92136700  1
  V  V19  1  0.85385000  0.42087800  0.12619300  1
  V  V20  1  0.14615000  0.57912200  0.62619300  1
  V  V21  1  0.31744400  0.67212900  0.42136700  1
  V  V22  1  0.81744400  0.82787100  0.92136700  1
  V  V23  1  0.64615000  0.92087800  0.12619300  1
  Si  Si24  1  0.14992500  0.02205700  0.00161100  1
  Si  Si25  1  0.68942700  0.06129200  0.31746500  1
  Si  Si26  1  0.84477900  0.18975100  0.72871700  1
  Si  Si27  1  0.17072000  0.22562500  0.04600300  1
  Si  Si28  1  0.67072000  0.27437500  0.54600300  1
  Si  Si29  1  0.34477900  0.31024900  0.22871700  1
  Si  Si30  1  0.18942700  0.43870800  0.81746500  1
  Si  Si31  1  0.64992500  0.47794300  0.50161100  1
  Si  Si32  1  0.35007500  0.52205700  0.00161100  1
  Si  Si33  1  0.81057300  0.56129200  0.31746500  1
  Si  Si34  1  0.65522100  0.68975100  0.72871700  1
  Si  Si35  1  0.32928000  0.72562500  0.04600300  1
  Si  Si36  1  0.82928000  0.77437500  0.54600300  1
  Si  Si37  1  0.15522100  0.81024900  0.22871700  1
  Si  Si38  1  0.31057300  0.93870800  0.81746500  1
  Si  Si39  1  0.85007500  0.97794300  0.50161100  1
  O  O40  1  0.42329000  0.02540200  0.06126500  1
  O  O41  1  0.77377600  0.03684400  0.20831800  1
  O  O42  1  0.21768500  0.03260600  0.88694200  1
  O  O43  1  0.06216300  0.06425100  0.52104000  1
  O  O44  1  0.37203100  0.07330800  0.33813800  1
  O  O45  1  0.66863300  0.09358300  0.70938900  1
  O  O46  1  0.98680800  0.12553500  0.02543000  1
  O  O47  1  0.85899800  0.15665900  0.34714600  1
  O  O48  1  0.15940600  0.17768800  0.70226300  1
  O  O49  1  0.47266900  0.18401600  0.52483000  1
  O  O50  1  0.24085800  0.21756200  0.16049300  1
  O  O51  1  0.82640200  0.21516900  0.84165500  1
  O  O52  1  0.44515500  0.21744400  0.98574300  1
  O  O53  1  0.94515500  0.28255600  0.48574300  1
  O  O54  1  0.32640200  0.28483100  0.34165500  1
  O  O55  1  0.74085800  0.28243800  0.66049300  1
  O  O56  1  0.97266900  0.31598400  0.02483000  1
  O  O57  1  0.65940600  0.32231200  0.20226300  1
  O  O58  1  0.35899800  0.34334100  0.84714600  1
  O  O59  1  0.48680800  0.37446500  0.52543000  1
  O  O60  1  0.16863300  0.40641700  0.20938900  1
  O  O61  1  0.87203100  0.42669200  0.83813800  1
  O  O62  1  0.56216300  0.43574900  0.02104000  1
  O  O63  1  0.71768500  0.46739400  0.38694200  1
  O  O64  1  0.27377600  0.46315600  0.70831800  1
  O  O65  1  0.92329000  0.47459800  0.56126500  1
  O  O66  1  0.07671000  0.52540200  0.06126500  1
  O  O67  1  0.72622400  0.53684400  0.20831800  1
  O  O68  1  0.28231500  0.53260600  0.88694200  1
  O  O69  1  0.43783700  0.56425100  0.52104000  1
  O  O70  1  0.12796900  0.57330800  0.33813800  1
  O  O71  1  0.83136700  0.59358300  0.70938900  1
  O  O72  1  0.51319200  0.62553500  0.02543000  1
  O  O73  1  0.64100200  0.65665900  0.34714600  1
  O  O74  1  0.34059400  0.67768800  0.70226300  1
  O  O75  1  0.02733100  0.68401600  0.52483000  1
  O  O76  1  0.25914200  0.71756200  0.16049300  1
  O  O77  1  0.67359800  0.71516900  0.84165500  1
  O  O78  1  0.05484500  0.71744400  0.98574300  1
  O  O79  1  0.55484500  0.78255600  0.48574300  1
  O  O80  1  0.17359800  0.78483100  0.34165500  1
  O  O81  1  0.75914200  0.78243800  0.66049300  1
  O  O82  1  0.52733100  0.81598400  0.02483000  1
  O  O83  1  0.84059400  0.82231200  0.20226300  1
  O  O84  1  0.14100200  0.84334100  0.84714600  1
  O  O85  1  0.01319200  0.87446500  0.52543000  1
  O  O86  1  0.33136700  0.90641700  0.20938900  1
  O  O87  1  0.62796900  0.92669200  0.83813800  1
  O  O88  1  0.93783700  0.93574900  0.02104000  1
  O  O89  1  0.78231500  0.96739400  0.38694200  1
  O  O90  1  0.22622400  0.96315600  0.70831800  1
  O  O91  1  0.57671000  0.97459800  0.56126500  1
