# generated using pymatgen
data_LiCrSiO4
_symmetry_space_group_name_H-M   'P 1'
_cell_length_a   4.73463300
_cell_length_b   6.14987200
_cell_length_c   10.27605400
_cell_angle_alpha   90.00000000
_cell_angle_beta   90.00001768
_cell_angle_gamma   89.99996927
_symmetry_Int_Tables_number   1
_chemical_formula_structural   LiCrSiO4
_chemical_formula_sum   'Li4 Cr4 Si4 O16'
_cell_volume   299.21184030
_cell_formula_units_Z   4
loop_
 _symmetry_equiv_pos_site_id
 _symmetry_equiv_pos_as_xyz
  1  'x, y, z'
loop_
 _atom_site_type_symbol
 _atom_site_label
 _atom_site_symmetry_multiplicity
 _atom_site_fract_x
 _atom_site_fract_y
 _atom_site_fract_z
 _atom_site_occupancy
  Li  Li0  1  0.01772300  0.00535600  0.21532300  1
  Li  Li1  1  0.48227700  0.00535600  0.71532400  1
  Li  Li2  1  0.51772300  0.50535600  0.28467000  1
  Li  Li3  1  0.98227700  0.50535600  0.78467100  1
  Cr  Cr4  1  0.00005100  0.25670300  0.50007600  1
  Cr  Cr5  1  0.50005000  0.25669300  0.00000800  1
  Cr  Cr6  1  0.49998200  0.75676900  0.99997000  1
  Cr  Cr7  1  0.99992100  0.75667800  0.50002400  1
  Si  Si8  1  0.08090800  0.50666600  0.09049700  1
  Si  Si9  1  0.41909500  0.50666900  0.59049700  1
  Si  Si10  1  0.58090800  0.00666900  0.40949500  1
  Si  Si11  1  0.91909600  0.00666600  0.90949500  1
  O  O12  1  0.25038900  0.50647800  0.94303700  1
  O  O13  1  0.22178700  0.28473400  0.15002000  1
  O  O14  1  0.22126600  0.72908800  0.14952500  1
  O  O15  1  0.23421700  0.00666500  0.41938200  1
  O  O16  1  0.26577600  0.00666900  0.91937700  1
  O  O17  1  0.27873500  0.72908400  0.64952800  1
  O  O18  1  0.27821700  0.28473500  0.65002400  1
  O  O19  1  0.24961100  0.50647600  0.44304100  1
  O  O20  1  0.75038700  0.00647600  0.55695800  1
  O  O21  1  0.72178400  0.78473300  0.34997400  1
  O  O22  1  0.72126900  0.22908700  0.35047000  1
  O  O23  1  0.73421600  0.50667000  0.08061100  1
  O  O24  1  0.76577800  0.50666400  0.58061600  1
  O  O25  1  0.77873400  0.22908500  0.85046500  1
  O  O26  1  0.77821300  0.78473600  0.84997000  1
  O  O27  1  0.74961300  0.00647700  0.05695200  1
