# generated using pymatgen
data_LiFeSiO4
_symmetry_space_group_name_H-M   'P 1'
_cell_length_a   8.60871792
_cell_length_b   8.60871792
_cell_length_c   8.60871762
_cell_angle_alpha   107.36503042
_cell_angle_beta   107.36503042
_cell_angle_gamma   107.36503832
_symmetry_Int_Tables_number   1
_chemical_formula_structural   LiFeSiO4
_chemical_formula_sum   'Li6 Fe6 Si6 O24'
_cell_volume   525.94559930
_cell_formula_units_Z   6
loop_
 _symmetry_equiv_pos_site_id
 _symmetry_equiv_pos_as_xyz
  1  'x, y, z'
loop_
 _atom_site_type_symbol
 _atom_site_label
 _atom_site_symmetry_multiplicity
 _atom_site_fract_x
 _atom_site_fract_y
 _atom_site_fract_z
 _atom_site_occupancy
  Li  Li0  1  0.54034100  0.76744100  0.94263100  1
  Li  Li1  1  0.23255900  0.05736900  0.45965900  1
  Li  Li2  1  0.05736900  0.45965900  0.23255900  1
  Li  Li3  1  0.94263100  0.54034100  0.76744100  1
  Li  Li4  1  0.76744100  0.94263100  0.54034100  1
  Li  Li5  1  0.45965900  0.23255900  0.05736900  1
  Fe  Fe6  1  0.10905800  0.28634300  0.87327900  1
  Fe  Fe7  1  0.12672100  0.89094200  0.71365700  1
  Fe  Fe8  1  0.71365700  0.12672100  0.89094200  1
  Fe  Fe9  1  0.28634300  0.87327900  0.10905800  1
  Fe  Fe10  1  0.87327900  0.10905800  0.28634300  1
  Fe  Fe11  1  0.89094200  0.71365700  0.12672100  1
  Si  Si12  1  0.21549500  0.43921400  0.61103400  1
  Si  Si13  1  0.56078600  0.38896600  0.78450500  1
  Si  Si14  1  0.38896600  0.78450500  0.56078600  1
  Si  Si15  1  0.61103400  0.21549500  0.43921400  1
  Si  Si16  1  0.43921400  0.61103400  0.21549500  1
  Si  Si17  1  0.78450500  0.56078600  0.38896600  1
  O  O18  1  0.01992300  0.04933400  0.70437300  1
  O  O19  1  0.29562700  0.98007700  0.95066600  1
  O  O20  1  0.11442400  0.43486300  0.74239900  1
  O  O21  1  0.25760100  0.88557600  0.56513700  1
  O  O22  1  0.07591600  0.34371800  0.40003300  1
  O  O23  1  0.35174800  0.65086700  0.66644400  1
  O  O24  1  0.56513700  0.25760100  0.88557600  1
  O  O25  1  0.34913300  0.33355600  0.64825200  1
  O  O26  1  0.65628200  0.59996700  0.92408400  1
  O  O27  1  0.59996700  0.92408400  0.65628200  1
  O  O28  1  0.33355600  0.64825200  0.34913300  1
  O  O29  1  0.95066600  0.29562700  0.98007700  1
  O  O30  1  0.04933400  0.70437300  0.01992300  1
  O  O31  1  0.66644400  0.35174800  0.65086700  1
  O  O32  1  0.40003300  0.07591600  0.34371800  1
  O  O33  1  0.34371800  0.40003300  0.07591600  1
  O  O34  1  0.65086700  0.66644400  0.35174800  1
  O  O35  1  0.43486300  0.74239900  0.11442400  1
  O  O36  1  0.64825200  0.34913300  0.33355500  1
  O  O37  1  0.92408400  0.65628200  0.59996700  1
  O  O38  1  0.74239900  0.11442400  0.43486300  1
  O  O39  1  0.88557600  0.56513700  0.25760100  1
  O  O40  1  0.70437300  0.01992300  0.04933400  1
  O  O41  1  0.98007700  0.95066600  0.29562700  1
