# generated using pymatgen
data_LiCo2(PO4)3
_symmetry_space_group_name_H-M   'P 1'
_cell_length_a   8.75008600
_cell_length_b   8.58015700
_cell_length_c   12.12814527
_cell_angle_alpha   89.85235915
_cell_angle_beta   90.00000000
_cell_angle_gamma   90.00000000
_symmetry_Int_Tables_number   1
_chemical_formula_structural   LiCo2(PO4)3
_chemical_formula_sum   'Li4 Co8 P12 O48'
_cell_volume   910.54309311
_cell_formula_units_Z   4
loop_
 _symmetry_equiv_pos_site_id
 _symmetry_equiv_pos_as_xyz
  1  'x, y, z'
loop_
 _atom_site_type_symbol
 _atom_site_label
 _atom_site_symmetry_multiplicity
 _atom_site_fract_x
 _atom_site_fract_y
 _atom_site_fract_z
 _atom_site_occupancy
  Li  Li0  1  0.72538300  0.95709300  0.06716500  1
  Li  Li1  1  0.77737400  0.97955800  0.43034600  1
  Li  Li2  1  0.27737400  0.02044200  0.56965400  1
  Li  Li3  1  0.22538300  0.04290700  0.93283500  1
  Co  Co4  1  0.53466100  0.49789000  0.12942100  1
  Co  Co5  1  0.03466100  0.50211000  0.87057900  1
  Co  Co6  1  0.46462300  0.49744000  0.63167000  1
  Co  Co7  1  0.96462300  0.50256000  0.36833000  1
  Co  Co8  1  0.04176500  0.00035600  0.13661900  1
  Co  Co9  1  0.54176500  0.99964400  0.86338100  1
  Co  Co10  1  0.95624100  0.99622900  0.63412600  1
  Co  Co11  1  0.45624100  0.00377100  0.36587400  1
  P  P12  1  0.24636500  0.28793400  0.25272800  1
  P  P13  1  0.39148400  0.35449800  0.89475400  1
  P  P14  1  0.11154300  0.35400800  0.60138300  1
  P  P15  1  0.61154300  0.64599200  0.39861700  1
  P  P16  1  0.89148400  0.64550200  0.10524600  1
  P  P17  1  0.74636500  0.71206600  0.74727200  1
  P  P18  1  0.24976100  0.78517800  0.75117100  1
  P  P19  1  0.10584300  0.85499100  0.39607900  1
  P  P20  1  0.39632200  0.85820300  0.10440400  1
  P  P21  1  0.89632200  0.14179700  0.89559600  1
  P  P22  1  0.60584300  0.14500900  0.60392100  1
  P  P23  1  0.74976100  0.21482200  0.24882900  1
  O  O24  1  0.86512000  0.31286400  0.31427200  1
  O  O25  1  0.65286600  0.31601500  0.16945000  1
  O  O26  1  0.90076100  0.32240600  0.88678800  1
  O  O27  1  0.58267800  0.32207700  0.58342500  1
  O  O28  1  0.35629000  0.36841700  0.17229200  1
  O  O29  1  0.42706400  0.39776000  0.77426000  1
  O  O30  1  0.22129200  0.39104600  0.91702100  1
  O  O31  1  0.99677800  0.40159400  0.51083700  1
  O  O32  1  0.16099800  0.41276800  0.31862600  1
  O  O33  1  0.27290500  0.41392700  0.57410300  1
  O  O34  1  0.05971900  0.42439400  0.71124900  1
  O  O35  1  0.49810700  0.44388100  0.97282500  1
  O  O36  1  0.99810700  0.55611900  0.02717500  1
  O  O37  1  0.55971900  0.57560600  0.28875100  1
  O  O38  1  0.77290500  0.58607300  0.42589700  1
  O  O39  1  0.66099800  0.58723200  0.68137400  1
  O  O40  1  0.49677800  0.59840600  0.48916300  1
  O  O41  1  0.72129200  0.60895400  0.08297900  1
  O  O42  1  0.92706400  0.60224000  0.22574000  1
  O  O43  1  0.85629000  0.63158300  0.82770800  1
  O  O44  1  0.40076100  0.67759400  0.11321200  1
  O  O45  1  0.08267800  0.67792300  0.41657500  1
  O  O46  1  0.15286600  0.68398500  0.83055000  1
  O  O47  1  0.36512000  0.68713600  0.68572800  1
  O  O48  1  0.63580600  0.81247800  0.81609200  1
  O  O49  1  0.83699200  0.81277100  0.66328800  1
  O  O50  1  0.91105200  0.82394200  0.08696300  1
  O  O51  1  0.61381700  0.82730400  0.39376500  1
  O  O52  1  0.15060200  0.87375100  0.66585200  1
  O  O53  1  0.07401700  0.89582500  0.27642900  1
  O  O54  1  0.27056100  0.90060600  0.43066100  1
  O  O55  1  0.51786800  0.91130300  0.01935500  1
  O  O56  1  0.33001100  0.90993900  0.82240400  1
  O  O57  1  0.23678700  0.91481200  0.06820000  1
  O  O58  1  0.44196700  0.92685000  0.21648100  1
  O  O59  1  0.98867800  0.93972800  0.47185600  1
  O  O60  1  0.48867800  0.06027200  0.52814400  1
  O  O61  1  0.94196700  0.07315000  0.78351900  1
  O  O62  1  0.73678700  0.08518800  0.93180000  1
  O  O63  1  0.83001100  0.09006100  0.17759600  1
  O  O64  1  0.01786800  0.08869700  0.98064500  1
  O  O65  1  0.77056100  0.09939400  0.56933900  1
  O  O66  1  0.57401700  0.10417500  0.72357100  1
  O  O67  1  0.65060200  0.12624900  0.33414800  1
  O  O68  1  0.41105200  0.17605800  0.91303700  1
  O  O69  1  0.11381700  0.17269600  0.60623500  1
  O  O70  1  0.33699200  0.18722900  0.33671200  1
  O  O71  1  0.13580600  0.18752200  0.18390800  1
