# generated using pymatgen
data_Li2Fe3P4(HO4)4
_symmetry_space_group_name_H-M   'P 1'
_cell_length_a   8.18650800
_cell_length_b   8.86729400
_cell_length_c   9.11082408
_cell_angle_alpha   80.20354706
_cell_angle_beta   90.00000000
_cell_angle_gamma   90.00000000
_symmetry_Int_Tables_number   1
_chemical_formula_structural   Li2Fe3P4(HO4)4
_chemical_formula_sum   'Li4 Fe6 P8 H8 O32'
_cell_volume   651.73064422
_cell_formula_units_Z   2
loop_
 _symmetry_equiv_pos_site_id
 _symmetry_equiv_pos_as_xyz
  1  'x, y, z'
loop_
 _atom_site_type_symbol
 _atom_site_label
 _atom_site_symmetry_multiplicity
 _atom_site_fract_x
 _atom_site_fract_y
 _atom_site_fract_z
 _atom_site_occupancy
  Li  Li0  1  0.33330600  0.00203300  0.02828700  1
  Li  Li1  1  0.16669400  0.00203300  0.52828700  1
  Li  Li2  1  0.83330600  0.99796700  0.47171300  1
  Li  Li3  1  0.66669400  0.99796700  0.97171300  1
  Fe  Fe4  1  0.50000000  0.50000000  0.00000000  1
  Fe  Fe5  1  0.14110000  0.64416700  0.00630200  1
  Fe  Fe6  1  0.64110000  0.35583300  0.49369800  1
  Fe  Fe7  1  0.00000000  0.50000000  0.50000000  1
  Fe  Fe8  1  0.35890000  0.64416700  0.50630200  1
  Fe  Fe9  1  0.85890000  0.35583300  0.99369800  1
  P  P10  1  0.56130200  0.17685000  0.22864300  1
  P  P11  1  0.80125600  0.61294800  0.20359800  1
  P  P12  1  0.30125600  0.38705200  0.29640200  1
  P  P13  1  0.06130200  0.82315000  0.27135700  1
  P  P14  1  0.93869800  0.17685000  0.72864300  1
  P  P15  1  0.69874400  0.61294800  0.70359800  1
  P  P16  1  0.19874400  0.38705200  0.79640200  1
  P  P17  1  0.43869800  0.82315000  0.77135700  1
  H  H18  1  0.99478000  0.11656300  0.21259100  1
  H  H19  1  0.03389900  0.28387800  0.23310900  1
  H  H20  1  0.53389900  0.71612200  0.26689100  1
  H  H21  1  0.49478000  0.88343700  0.28740900  1
  H  H22  1  0.50522000  0.11656300  0.71259100  1
  H  H23  1  0.46610100  0.28387800  0.73310900  1
  H  H24  1  0.96610100  0.71612200  0.76689100  1
  H  H25  1  0.00522000  0.88343700  0.78740900  1
  O  O26  1  0.62918700  0.31372000  0.11948500  1
  O  O27  1  0.99408400  0.22292600  0.15731500  1
  O  O28  1  0.92564800  0.54643600  0.10765900  1
  O  O29  1  0.53340900  0.03842300  0.14963100  1
  O  O30  1  0.29084500  0.48774000  0.14115400  1
  O  O31  1  0.63524900  0.65018200  0.12994200  1
  O  O32  1  0.15922600  0.85763400  0.12608900  1
  O  O33  1  0.37465300  0.22140400  0.27184300  1
  O  O34  1  0.87465300  0.77859600  0.22815700  1
  O  O35  1  0.65922600  0.14236600  0.37391100  1
  O  O36  1  0.13524900  0.34981800  0.37005800  1
  O  O37  1  0.79084500  0.51226000  0.35884600  1
  O  O38  1  0.03340900  0.96157700  0.35036900  1
  O  O39  1  0.42564800  0.45356400  0.39234100  1
  O  O40  1  0.49408400  0.77707400  0.34268500  1
  O  O41  1  0.12918700  0.68628000  0.38051500  1
  O  O42  1  0.87081300  0.31372000  0.61948500  1
  O  O43  1  0.50591600  0.22292600  0.65731500  1
  O  O44  1  0.57435200  0.54643600  0.60765900  1
  O  O45  1  0.96659100  0.03842300  0.64963100  1
  O  O46  1  0.20915500  0.48774000  0.64115400  1
  O  O47  1  0.86475100  0.65018200  0.62994200  1
  O  O48  1  0.34077400  0.85763400  0.62608900  1
  O  O49  1  0.12534700  0.22140400  0.77184300  1
  O  O50  1  0.62534700  0.77859600  0.72815700  1
  O  O51  1  0.84077400  0.14236600  0.87391100  1
  O  O52  1  0.36475100  0.34981800  0.87005800  1
  O  O53  1  0.70915500  0.51226000  0.85884600  1
  O  O54  1  0.46659100  0.96157700  0.85036900  1
  O  O55  1  0.07435200  0.45356400  0.89234100  1
  O  O56  1  0.00591600  0.77707400  0.84268500  1
  O  O57  1  0.37081300  0.68628000  0.88051500  1
