# generated using pymatgen
data_LiVOF3
_symmetry_space_group_name_H-M   'P 1'
_cell_length_a   7.86128500
_cell_length_b   7.94031380
_cell_length_c   10.70106018
_cell_angle_alpha   71.61513516
_cell_angle_beta   71.44478597
_cell_angle_gamma   81.73730897
_symmetry_Int_Tables_number   1
_chemical_formula_structural   LiVOF3
_chemical_formula_sum   'Li8 V8 O8 F24'
_cell_volume   600.22938425
_cell_formula_units_Z   8
loop_
 _symmetry_equiv_pos_site_id
 _symmetry_equiv_pos_as_xyz
  1  'x, y, z'
loop_
 _atom_site_type_symbol
 _atom_site_label
 _atom_site_symmetry_multiplicity
 _atom_site_fract_x
 _atom_site_fract_y
 _atom_site_fract_z
 _atom_site_occupancy
  Li  Li0  1  0.09658700  0.55313000  0.03623000  1
  Li  Li1  1  0.09322600  0.55073500  0.53486500  1
  Li  Li2  1  0.78476600  0.84666200  0.28386600  1
  Li  Li3  1  0.30035100  0.34356800  0.28522700  1
  Li  Li4  1  0.27792700  0.35247400  0.78247400  1
  Li  Li5  1  0.59832100  0.05249700  0.53351600  1
  Li  Li6  1  0.43943300  0.09101700  0.97933800  1
  Li  Li7  1  0.79372800  0.84780600  0.78686300  1
  V  V8  1  0.01983500  0.99509700  0.48263400  1
  V  V9  1  0.24458300  0.76373000  0.23556600  1
  V  V10  1  0.74771700  0.26903600  0.23240500  1
  V  V11  1  0.24846400  0.77118300  0.73247000  1
  V  V12  1  0.52077900  0.49648800  0.48295300  1
  V  V13  1  0.01113800  0.99474200  0.98615100  1
  V  V14  1  0.51993400  0.49471300  0.98252300  1
  V  V15  1  0.74830000  0.26839000  0.73379900  1
  O  O16  1  0.06377200  0.86317900  0.37588600  1
  O  O17  1  0.11638400  0.81408900  0.12384300  1
  O  O18  1  0.61846900  0.32363500  0.12300200  1
  O  O19  1  0.11881000  0.81626800  0.62323600  1
  O  O20  1  0.56589400  0.36646200  0.37423600  1
  O  O21  1  0.07042400  0.87206100  0.87165500  1
  O  O22  1  0.55650800  0.35992400  0.87682900  1
  O  O23  1  0.62204600  0.31877600  0.62165300  1
  F  F24  1  0.37751900  0.96877200  0.16222200  1
  F  F25  1  0.28542600  0.40031200  0.09750800  1
  F  F26  1  0.38843600  0.69317300  0.38196600  1
  F  F27  1  0.44210500  0.63470300  0.13201500  1
  F  F28  1  0.94612100  0.13848200  0.12905300  1
  F  F29  1  0.72514400  0.63044200  0.41152200  1
  F  F30  1  0.22538200  0.12812600  0.41031400  1
  F  F31  1  0.88486600  0.47061000  0.16322400  1
  F  F32  1  0.15341400  0.53165400  0.34977700  1
  F  F33  1  0.65361800  0.03811100  0.34779800  1
  F  F34  1  0.78957000  0.89803800  0.09729900  1
  F  F35  1  0.44490600  0.63767700  0.63236400  1
  F  F36  1  0.88996900  0.19276200  0.38163800  1
  F  F37  1  0.22995500  0.13155500  0.91506400  1
  F  F38  1  0.88008700  0.47408000  0.66507400  1
  F  F39  1  0.38382200  0.97395100  0.66116800  1
  F  F40  1  0.15091800  0.54054000  0.84937300  1
  F  F41  1  0.28436100  0.40518100  0.59706800  1
  F  F42  1  0.78531700  0.90496500  0.59886500  1
  F  F43  1  0.38984500  0.69459600  0.88236400  1
  F  F44  1  0.89294900  0.19440300  0.87654800  1
  F  F45  1  0.94638600  0.13773600  0.63169600  1
  F  F46  1  0.72416400  0.62824400  0.90863000  1
  F  F47  1  0.64396900  0.03788800  0.84193100  1
