# generated using pymatgen
data_KNa2Li3Zr2(Si2O5)6
_symmetry_space_group_name_H-M   'P 1'
_cell_length_a   10.46783745
_cell_length_b   10.46783745
_cell_length_c   14.26997000
_cell_angle_alpha   90.00000000
_cell_angle_beta   90.00000000
_cell_angle_gamma   119.99999655
_symmetry_Int_Tables_number   1
_chemical_formula_structural   KNa2Li3Zr2(Si2O5)6
_chemical_formula_sum   'K2 Na4 Li6 Zr4 Si24 O60'
_cell_volume   1354.15272293
_cell_formula_units_Z   2
loop_
 _symmetry_equiv_pos_site_id
 _symmetry_equiv_pos_as_xyz
  1  'x, y, z'
loop_
 _atom_site_type_symbol
 _atom_site_label
 _atom_site_symmetry_multiplicity
 _atom_site_fract_x
 _atom_site_fract_y
 _atom_site_fract_z
 _atom_site_occupancy
  K  K0  1  0.00000000  0.00000000  0.25000000  1
  K  K1  1  0.00000000  0.00000000  0.75000000  1
  Na  Na2  1  0.33333300  0.66666700  0.00000000  1
  Na  Na3  1  0.33333300  0.66666700  0.50000000  1
  Na  Na4  1  0.66666700  0.33333300  0.00000000  1
  Na  Na5  1  0.66666700  0.33333300  0.50000000  1
  Li  Li6  1  0.00000000  0.50000000  0.25000000  1
  Li  Li7  1  0.00000000  0.50000000  0.75000000  1
  Li  Li8  1  0.50000000  0.50000000  0.25000000  1
  Li  Li9  1  0.50000000  0.50000000  0.75000000  1
  Li  Li10  1  0.50000000  0.00000000  0.25000000  1
  Li  Li11  1  0.50000000  0.00000000  0.75000000  1
  Zr  Zr12  1  0.33333300  0.66666700  0.25000000  1
  Zr  Zr13  1  0.33333300  0.66666700  0.75000000  1
  Zr  Zr14  1  0.66666700  0.33333300  0.25000000  1
  Zr  Zr15  1  0.66666700  0.33333300  0.75000000  1
  Si  Si16  1  0.10811000  0.76195200  0.38900500  1
  Si  Si17  1  0.10811000  0.76195200  0.61099500  1
  Si  Si18  1  0.23804800  0.89189000  0.11099500  1
  Si  Si19  1  0.23804800  0.89189000  0.88900500  1
  Si  Si20  1  0.10811000  0.34615800  0.11099500  1
  Si  Si21  1  0.10811000  0.34615800  0.88900500  1
  Si  Si22  1  0.23804800  0.34615800  0.38900500  1
  Si  Si23  1  0.23804800  0.34615800  0.61099500  1
  Si  Si24  1  0.65384200  0.89189000  0.38900500  1
  Si  Si25  1  0.65384200  0.89189000  0.61099500  1
  Si  Si26  1  0.34615800  0.23804800  0.11099500  1
  Si  Si27  1  0.34615800  0.23804800  0.88900500  1
  Si  Si28  1  0.65384200  0.76195200  0.11099500  1
  Si  Si29  1  0.65384200  0.76195200  0.88900500  1
  Si  Si30  1  0.34615800  0.10811000  0.61099500  1
  Si  Si31  1  0.34615800  0.10811000  0.38900500  1
  Si  Si32  1  0.76195200  0.65384200  0.38900500  1
  Si  Si33  1  0.76195200  0.65384200  0.61099500  1
  Si  Si34  1  0.89189000  0.65384200  0.88900500  1
  Si  Si35  1  0.89189000  0.65384200  0.11099500  1
  Si  Si36  1  0.76195200  0.10811000  0.11099500  1
  Si  Si37  1  0.76195200  0.10811000  0.88900500  1
  Si  Si38  1  0.89189000  0.23804800  0.38900500  1
  Si  Si39  1  0.89189000  0.23804800  0.61099500  1
  O  O40  1  0.05985300  0.78817700  0.13061400  1
  O  O41  1  0.05985300  0.78817700  0.86938600  1
  O  O42  1  0.21182300  0.94014700  0.36938600  1
  O  O43  1  0.21182300  0.94014700  0.63061400  1
  O  O44  1  0.13065100  0.73077100  0.50000000  1
  O  O45  1  0.26922900  0.86934900  0.00000000  1
  O  O46  1  0.14895500  0.66161600  0.32557000  1
  O  O47  1  0.14895500  0.66161600  0.67443000  1
  O  O48  1  0.14895500  0.48733900  0.17443000  1
  O  O49  1  0.14895500  0.48733900  0.82557000  1
  O  O50  1  0.05985300  0.27167600  0.36938600  1
  O  O51  1  0.05985300  0.27167600  0.63061400  1
  O  O52  1  0.33838400  0.85104500  0.17443000  1
  O  O53  1  0.33838400  0.85104500  0.82557000  1
  O  O54  1  0.13065100  0.39988000  0.00000000  1
  O  O55  1  0.26922900  0.39988000  0.50000000  1
  O  O56  1  0.51266100  0.85104500  0.32557000  1
  O  O57  1  0.51266100  0.85104500  0.67443000  1
  O  O58  1  0.21182300  0.27167600  0.13061400  1
  O  O59  1  0.21182300  0.27167600  0.86938600  1
  O  O60  1  0.33838400  0.48733900  0.67443000  1
  O  O61  1  0.33838400  0.48733900  0.32557000  1
  O  O62  1  0.51266100  0.66161600  0.17443000  1
  O  O63  1  0.51266100  0.66161600  0.82557000  1
  O  O64  1  0.60012000  0.86934900  0.50000000  1
  O  O65  1  0.27167600  0.21182300  0.36938600  1
  O  O66  1  0.27167600  0.21182300  0.63061400  1
  O  O67  1  0.60012000  0.73077100  0.00000000  1
  O  O68  1  0.72832400  0.94014700  0.13061400  1
  O  O69  1  0.72832400  0.94014700  0.86938600  1
  O  O70  1  0.27167600  0.05985300  0.13061400  1
  O  O71  1  0.27167600  0.05985300  0.86938600  1
  O  O72  1  0.39988000  0.26922900  0.00000000  1
  O  O73  1  0.72832400  0.78817700  0.36938600  1
  O  O74  1  0.72832400  0.78817700  0.63061400  1
  O  O75  1  0.39988000  0.13065100  0.50000000  1
  O  O76  1  0.48733900  0.33838400  0.17443000  1
  O  O77  1  0.48733900  0.33838400  0.82557000  1
  O  O78  1  0.66161600  0.51266100  0.32557000  1
  O  O79  1  0.66161600  0.51266100  0.67443000  1
  O  O80  1  0.78817700  0.72832400  0.13061400  1
  O  O81  1  0.78817700  0.72832400  0.86938600  1
  O  O82  1  0.48733900  0.14895500  0.32557000  1
  O  O83  1  0.48733900  0.14895500  0.67443000  1
  O  O84  1  0.73077100  0.60012000  0.50000000  1
  O  O85  1  0.86934900  0.60012000  0.00000000  1
  O  O86  1  0.66161600  0.14895500  0.17443000  1
  O  O87  1  0.66161600  0.14895500  0.82557000  1
  O  O88  1  0.94014700  0.72832400  0.36938600  1
  O  O89  1  0.94014700  0.72832400  0.63061400  1
  O  O90  1  0.85104500  0.51266100  0.17443000  1
  O  O91  1  0.85104500  0.51266100  0.82557000  1
  O  O92  1  0.85104500  0.33838400  0.32557000  1
  O  O93  1  0.85104500  0.33838400  0.67443000  1
  O  O94  1  0.73077100  0.13065100  0.00000000  1
  O  O95  1  0.86934900  0.26922900  0.50000000  1
  O  O96  1  0.78817700  0.05985300  0.36938600  1
  O  O97  1  0.78817700  0.05985300  0.63061400  1
  O  O98  1  0.94014700  0.21182300  0.13061400  1
  O  O99  1  0.94014700  0.21182300  0.86938600  1
