# generated using pymatgen
data_Li5Mn6(BO3)6
_symmetry_space_group_name_H-M   'P 1'
_cell_length_a   8.79945300
_cell_length_b   8.85557531
_cell_length_c   10.48286051
_cell_angle_alpha   98.92468133
_cell_angle_beta   98.55014157
_cell_angle_gamma   107.65539428
_symmetry_Int_Tables_number   1
_chemical_formula_structural   Li5Mn6(BO3)6
_chemical_formula_sum   'Li10 Mn12 B12 O36'
_cell_volume   752.16368250
_cell_formula_units_Z   2
loop_
 _symmetry_equiv_pos_site_id
 _symmetry_equiv_pos_as_xyz
  1  'x, y, z'
loop_
 _atom_site_type_symbol
 _atom_site_label
 _atom_site_symmetry_multiplicity
 _atom_site_fract_x
 _atom_site_fract_y
 _atom_site_fract_z
 _atom_site_occupancy
  Li  Li0  1  0.09667200  0.79301500  0.81469900  1
  Li  Li1  1  0.81404800  0.10227400  0.80092800  1
  Li  Li2  1  0.22361800  0.23457200  0.51752700  1
  Li  Li3  1  0.84714200  0.54401300  0.55359400  1
  Li  Li4  1  0.56371000  0.85013300  0.54855200  1
  Li  Li5  1  0.59315000  0.29176800  0.30744000  1
  Li  Li6  1  0.96937400  0.98385200  0.26663000  1
  Li  Li7  1  0.33306800  0.03619200  0.05714300  1
  Li  Li8  1  0.06223400  0.33652700  0.03880400  1
  Li  Li9  1  0.72346100  0.74877400  0.02620000  1
  Mn  Mn10  1  0.20042400  0.18571400  0.80960400  1
  Mn  Mn11  1  0.81304500  0.48954300  0.83970600  1
  Mn  Mn12  1  0.48099800  0.83817700  0.83726400  1
  Mn  Mn13  1  0.58149900  0.23115700  0.59520100  1
  Mn  Mn14  1  0.23788400  0.59032400  0.58204500  1
  Mn  Mn15  1  0.93564900  0.92900700  0.56796000  1
  Mn  Mn16  1  0.33689100  0.96570400  0.34530600  1
  Mn  Mn17  1  0.99255700  0.34846100  0.33300000  1
  Mn  Mn18  1  0.68318000  0.68355700  0.31711000  1
  Mn  Mn19  1  0.08172700  0.70725200  0.10380900  1
  Mn  Mn20  1  0.72439600  0.10290900  0.08919600  1
  Mn  Mn21  1  0.42876600  0.43004600  0.07312200  1
  B  B22  1  0.00006200  0.99578800  0.99951400  1
  B  B23  1  0.53641200  0.20541200  0.87161300  1
  B  B24  1  0.19484100  0.53818300  0.87685800  1
  B  B25  1  0.76006100  0.76351600  0.75132400  1
  B  B26  1  0.96409900  0.29852000  0.63312600  1
  B  B27  1  0.29402300  0.95947500  0.62977600  1
  B  B28  1  0.50922900  0.50057100  0.49814900  1
  B  B29  1  0.03950600  0.70306100  0.37306600  1
  B  B30  1  0.71284000  0.04846500  0.37536900  1
  B  B31  1  0.24785100  0.23446000  0.24731100  1
  B  B32  1  0.79314900  0.46239900  0.12685000  1
  B  B33  1  0.44855500  0.79059000  0.11604800  1
  O  O34  1  0.01666700  0.11405500  0.92340400  1
  O  O35  1  0.39998100  0.18994500  0.93332200  1
  O  O36  1  0.07354700  0.54195900  0.94986500  1
  O  O37  1  0.09883700  0.89852900  0.99776300  1
  O  O38  1  0.26192100  0.41635200  0.89087600  1
  O  O39  1  0.62706500  0.10411300  0.88815300  1
  O  O40  1  0.57272100  0.32009500  0.79661400  1
  O  O41  1  0.24087500  0.64951300  0.80097500  1
  O  O42  1  0.65849400  0.73068400  0.83888000  1
  O  O43  1  0.05995200  0.19526900  0.64481000  1
  O  O44  1  0.84147900  0.28593000  0.70286000  1
  O  O45  1  0.17829100  0.96456900  0.70988500  1
  O  O46  1  0.86407800  0.67279700  0.73269300  1
  O  O47  1  0.32004900  0.06413100  0.54425500  1
  O  O48  1  0.37740000  0.85101600  0.63887000  1
  O  O49  1  0.76317700  0.88837700  0.68389300  1
  O  O50  1  0.37897700  0.44749400  0.55745600  1
  O  O51  1  0.99620300  0.40449800  0.54988200  1
  O  O52  1  0.58813300  0.02950200  0.44559400  1
  O  O53  1  0.61557100  0.40982300  0.48686200  1
  O  O54  1  0.53895400  0.64092500  0.45005700  1
  O  O55  1  0.12723500  0.60143200  0.38514700  1
  O  O56  1  0.13355700  0.19723200  0.32742500  1
  O  O57  1  0.92031800  0.70708300  0.44486600  1
  O  O58  1  0.74392900  0.16539700  0.29961400  1
  O  O59  1  0.06899300  0.81006500  0.28360400  1
  O  O60  1  0.36113100  0.15259200  0.24287800  1
  O  O61  1  0.80646900  0.94751100  0.38082800  1
  O  O62  1  0.24580500  0.34615000  0.17036800  1
  O  O63  1  0.66150600  0.44634600  0.18736400  1
  O  O64  1  0.31516900  0.77477200  0.17651100  1
  O  O65  1  0.54158100  0.69081400  0.12866700  1
  O  O66  1  0.88173300  0.35801300  0.12985600  1
  O  O67  1  0.83937000  0.59211900  0.06039300  1
  O  O68  1  0.48860100  0.91110300  0.04554000  1
  O  O69  1  0.88487700  0.97320200  0.07933300  1
