# generated using pymatgen
data_Li2V2(PO4)3
_symmetry_space_group_name_H-M   'P 1'
_cell_length_a   8.68955800
_cell_length_b   8.57019700
_cell_length_c   14.92535575
_cell_angle_alpha   55.00753228
_cell_angle_beta   90.00000000
_cell_angle_gamma   90.00000000
_symmetry_Int_Tables_number   1
_chemical_formula_structural   Li2V2(PO4)3
_chemical_formula_sum   'Li8 V8 P12 O48'
_cell_volume   910.57909165
_cell_formula_units_Z   4
loop_
 _symmetry_equiv_pos_site_id
 _symmetry_equiv_pos_as_xyz
  1  'x, y, z'
loop_
 _atom_site_type_symbol
 _atom_site_label
 _atom_site_symmetry_multiplicity
 _atom_site_fract_x
 _atom_site_fract_y
 _atom_site_fract_z
 _atom_site_occupancy
  Li  Li0  1  0.92131600  0.38259000  0.69754000  1
  Li  Li1  1  0.22270100  0.02755500  0.18135900  1
  Li  Li2  1  0.72270100  0.97244500  0.31864100  1
  Li  Li3  1  0.42131600  0.61741000  0.80246000  1
  Li  Li4  1  0.57868400  0.38259000  0.19754000  1
  Li  Li5  1  0.27729900  0.02755500  0.68135900  1
  Li  Li6  1  0.77729900  0.97244500  0.81864100  1
  Li  Li7  1  0.07868400  0.61741000  0.30246000  1
  V  V8  1  0.96774600  0.36703100  0.88734000  1
  V  V9  1  0.46774600  0.63296900  0.61266000  1
  V  V10  1  0.03877300  0.86725000  0.38745400  1
  V  V11  1  0.53877300  0.13275000  0.11254600  1
  V  V12  1  0.46122700  0.86725000  0.88745400  1
  V  V13  1  0.96122700  0.13275000  0.61254600  1
  V  V14  1  0.53225400  0.36703100  0.38734000  1
  V  V15  1  0.03225400  0.63296900  0.11266000  1
  P  P16  1  0.74856900  0.54044000  0.49470100  1
  P  P17  1  0.61625700  0.25627300  0.85049700  1
  P  P18  1  0.89644200  0.95965300  0.14415800  1
  P  P19  1  0.11625700  0.74372700  0.64950300  1
  P  P20  1  0.39644200  0.04034700  0.35584200  1
  P  P21  1  0.24856900  0.45956000  0.00529900  1
  P  P22  1  0.75143100  0.54044000  0.99470100  1
  P  P23  1  0.60355800  0.95965300  0.64415800  1
  P  P24  1  0.88374300  0.25627300  0.35049700  1
  P  P25  1  0.10355800  0.04034700  0.85584200  1
  P  P26  1  0.38374300  0.74372700  0.14950300  1
  P  P27  1  0.25143100  0.45956000  0.50529900  1
  O  O28  1  0.13282600  0.61743500  0.43104900  1
  O  O29  1  0.10284900  0.21200500  0.86556700  1
  O  O30  1  0.32585500  0.49323400  0.58761200  1
  O  O31  1  0.40761400  0.90035700  0.17009500  1
  O  O32  1  0.63168300  0.53268000  0.57444800  1
  O  O33  1  0.58101400  0.18342700  0.96802000  1
  O  O34  1  0.79047600  0.31183500  0.82355200  1
  O  O35  1  0.01898400  0.90924600  0.23375100  1
  O  O36  1  0.73783200  0.98241000  0.18112200  1
  O  O37  1  0.82553200  0.73669900  0.42735900  1
  O  O38  1  0.94596000  0.14346500  0.03651200  1
  O  O39  1  0.51046400  0.43084800  0.77286000  1
  O  O40  1  0.01046400  0.56915200  0.72714000  1
  O  O41  1  0.44596000  0.85653500  0.46348800  1
  O  O42  1  0.32553200  0.26330100  0.07264100  1
  O  O43  1  0.23783200  0.01759000  0.31887800  1
  O  O44  1  0.29047600  0.68816500  0.67644800  1
  O  O45  1  0.08101400  0.81657300  0.53198000  1
  O  O46  1  0.51898400  0.09075400  0.26624900  1
  O  O47  1  0.13168300  0.46732000  0.92555200  1
  O  O48  1  0.82585500  0.50676600  0.91238800  1
  O  O49  1  0.60284900  0.78799500  0.63443300  1
  O  O50  1  0.90761400  0.09964300  0.32990500  1
  O  O51  1  0.63282600  0.38256500  0.06895100  1
  O  O52  1  0.36717400  0.61743500  0.93104900  1
  O  O53  1  0.09238600  0.90035700  0.67009500  1
  O  O54  1  0.39715100  0.21200500  0.36556700  1
  O  O55  1  0.17414500  0.49323400  0.08761200  1
  O  O56  1  0.86831700  0.53268000  0.07444800  1
  O  O57  1  0.48101600  0.90924600  0.73375100  1
  O  O58  1  0.91898600  0.18342700  0.46802000  1
  O  O59  1  0.70952400  0.31183500  0.32355200  1
  O  O60  1  0.76216800  0.98241000  0.68112200  1
  O  O61  1  0.67446800  0.73669900  0.92735900  1
  O  O62  1  0.55404000  0.14346500  0.53651200  1
  O  O63  1  0.98953600  0.43084800  0.27286000  1
  O  O64  1  0.48953600  0.56915200  0.22714000  1
  O  O65  1  0.05404000  0.85653500  0.96348800  1
  O  O66  1  0.17446800  0.26330100  0.57264100  1
  O  O67  1  0.26216800  0.01759000  0.81887800  1
  O  O68  1  0.98101600  0.09075400  0.76624900  1
  O  O69  1  0.20952400  0.68816500  0.17644800  1
  O  O70  1  0.41898600  0.81657300  0.03198000  1
  O  O71  1  0.36831700  0.46732000  0.42555200  1
  O  O72  1  0.59238600  0.09964300  0.82990500  1
  O  O73  1  0.67414500  0.50676600  0.41238800  1
  O  O74  1  0.89715100  0.78799500  0.13443300  1
  O  O75  1  0.86717400  0.38256500  0.56895100  1
