# generated using pymatgen
data_Li7Co(O2F)2
_symmetry_space_group_name_H-M   'P 1'
_cell_length_a   5.34668410
_cell_length_b   5.97007506
_cell_length_c   10.31428821
_cell_angle_alpha   82.54093792
_cell_angle_beta   80.54589720
_cell_angle_gamma   119.61423331
_symmetry_Int_Tables_number   1
_chemical_formula_structural   Li7Co(O2F)2
_chemical_formula_sum   'Li14 Co2 O8 F4'
_cell_volume   273.65999771
_cell_formula_units_Z   2
loop_
 _symmetry_equiv_pos_site_id
 _symmetry_equiv_pos_as_xyz
  1  'x, y, z'
loop_
 _atom_site_type_symbol
 _atom_site_label
 _atom_site_symmetry_multiplicity
 _atom_site_fract_x
 _atom_site_fract_y
 _atom_site_fract_z
 _atom_site_occupancy
  Li  Li0  1  0.08653019  0.03315499  0.23174449  1
  Li  Li1  1  0.10319889  0.63266845  0.74178460  1
  Li  Li2  1  0.47912417  0.94350362  0.38806312  1
  Li  Li3  1  0.54944950  0.58183736  0.12190959  1
  Li  Li4  1  0.26604262  0.22319509  0.44321623  1
  Li  Li5  1  0.22846316  0.71181260  0.95739921  1
  Li  Li6  1  0.30602891  0.35740447  0.67794357  1
  Li  Li7  1  0.72222808  0.23593745  0.06286464  1
  Li  Li8  1  0.75328813  0.78115872  0.53087573  1
  Li  Li9  1  0.47949442  0.49654358  0.89676707  1
  Li  Li10  1  0.52436414  0.03413184  0.61376042  1
  Li  Li11  1  0.92301738  0.43685207  0.27802212  1
  Li  Li12  1  0.89715979  0.90631043  0.74566600  1
  Li  Li13  1  0.67171785  0.15100500  0.82786311  1
  Co  Co14  1  0.05531092  0.05007490  0.94837388  1
  Co  Co15  1  0.00179839  0.49624860  0.50778278  1
  O  O16  1  0.07423334  0.81812983  0.40415869  1
  O  O17  1  0.25785930  0.97536855  0.79523200  1
  O  O18  1  0.34450538  0.18029071  0.03636740  1
  O  O19  1  0.34896005  0.68427814  0.56535407  1
  O  O20  1  0.06637336  0.37612283  0.88190916  1
  O  O21  1  0.65139083  0.30591666  0.45941842  1
  O  O22  1  0.65643879  0.82901130  0.94419677  1
  O  O23  1  0.94174516  0.16730189  0.60689084  1
  F  F24  1  0.25555551  0.39172683  0.27871775  1
  F  F25  1  0.90505000  0.58439110  0.11174563  1
  F  F26  1  0.71005563  0.56353610  0.72279235  1
  F  F27  1  0.74061609  0.05208589  0.21917835  1
