# generated using pymatgen
data_Li15Cr15SiO32
_symmetry_space_group_name_H-M   'P 1'
_cell_length_a   8.08231400
_cell_length_b   8.08575517
_cell_length_c   8.87385348
_cell_angle_alpha   90.10663054
_cell_angle_beta   90.00921371
_cell_angle_gamma   90.01159981
_symmetry_Int_Tables_number   1
_chemical_formula_structural   Li15Cr15SiO32
_chemical_formula_sum   'Li15 Cr15 Si1 O32'
_cell_volume   579.91960761
_cell_formula_units_Z   1
loop_
 _symmetry_equiv_pos_site_id
 _symmetry_equiv_pos_as_xyz
  1  'x, y, z'
loop_
 _atom_site_type_symbol
 _atom_site_label
 _atom_site_symmetry_multiplicity
 _atom_site_fract_x
 _atom_site_fract_y
 _atom_site_fract_z
 _atom_site_occupancy
  Li  Li0  1  0.87508700  0.87455000  0.77009600  1
  Li  Li1  1  0.87520400  0.62179800  0.50997800  1
  Li  Li2  1  0.87577300  0.12846200  0.51583700  1
  Li  Li3  1  0.62486100  0.62301800  0.25133300  1
  Li  Li4  1  0.62276200  0.12496400  0.25623900  1
  Li  Li5  1  0.62390700  0.37749100  0.98358200  1
  Li  Li6  1  0.62565500  0.87313200  0.00005000  1
  Li  Li7  1  0.37306400  0.12503200  0.50337100  1
  Li  Li8  1  0.37400900  0.62471700  0.50197600  1
  Li  Li9  1  0.37480600  0.87383500  0.74965000  1
  Li  Li10  1  0.37485700  0.37661200  0.74501900  1
  Li  Li11  1  0.12295400  0.87450200  0.99608100  1
  Li  Li12  1  0.12439400  0.37627800  0.98673000  1
  Li  Li13  1  0.12557400  0.12516500  0.23320100  1
  Li  Li14  1  0.12402800  0.62320200  0.24904800  1
  Cr  Cr15  1  0.87458300  0.87408800  0.24535700  1
  Cr  Cr16  1  0.87444000  0.62215400  0.99577600  1
  Cr  Cr17  1  0.87431300  0.37353000  0.24732800  1
  Cr  Cr18  1  0.62811100  0.62204900  0.74927400  1
  Cr  Cr19  1  0.62624500  0.87477600  0.50123000  1
  Cr  Cr20  1  0.62799200  0.12812100  0.75248300  1
  Cr  Cr21  1  0.62644800  0.37473200  0.50203700  1
  Cr  Cr22  1  0.37452500  0.62474500  0.99861600  1
  Cr  Cr23  1  0.37432800  0.87437200  0.25074300  1
  Cr  Cr24  1  0.37630400  0.12515400  0.00136400  1
  Cr  Cr25  1  0.37469600  0.37489400  0.25054800  1
  Cr  Cr26  1  0.12300200  0.87573300  0.50145200  1
  Cr  Cr27  1  0.12131600  0.62155900  0.74935800  1
  Cr  Cr28  1  0.12296200  0.37381500  0.50173000  1
  Cr  Cr29  1  0.12213900  0.12847200  0.75465400  1
  Si  Si30  1  0.87187900  0.13446900  0.99812100  1
  O  O31  1  0.87475000  0.37068400  0.47109900  1
  O  O32  1  0.87517700  0.11941700  0.79989900  1
  O  O33  1  0.87254800  0.12323300  0.19914000  1
  O  O34  1  0.87374600  0.35824000  0.01908700  1
  O  O35  1  0.87418100  0.88409300  0.01665800  1
  O  O36  1  0.87461300  0.62329800  0.22327600  1
  O  O37  1  0.87466400  0.63452100  0.77243800  1
  O  O38  1  0.87463800  0.87971200  0.47280200  1
  O  O39  1  0.62501900  0.37293100  0.27313700  1
  O  O40  1  0.64062100  0.12613300  0.98220700  1
  O  O41  1  0.62772400  0.12483700  0.52465600  1
  O  O42  1  0.61419800  0.37439600  0.72867600  1
  O  O43  1  0.62645500  0.87642200  0.72905000  1
  O  O44  1  0.62677900  0.62488700  0.52135700  1
  O  O45  1  0.62551100  0.62378800  0.97806300  1
  O  O46  1  0.62495100  0.87529200  0.27136100  1
  O  O47  1  0.37527800  0.12276300  0.77618600  1
  O  O48  1  0.37462600  0.37391200  0.47767300  1
  O  O49  1  0.37521200  0.37335700  0.02134400  1
  O  O50  1  0.37565800  0.12453800  0.22765300  1
  O  O51  1  0.37427200  0.62479500  0.22741800  1
  O  O52  1  0.37496800  0.87634300  0.02179900  1
  O  O53  1  0.37453800  0.87581400  0.47882600  1
  O  O54  1  0.37469700  0.62745100  0.77181900  1
  O  O55  1  0.10924500  0.12625100  0.98580800  1
  O  O56  1  0.12403400  0.37154600  0.27187200  1
  O  O57  1  0.13558300  0.37443000  0.72875600  1
  O  O58  1  0.12171700  0.12484100  0.52851100  1
  O  O59  1  0.12258900  0.62491800  0.52123400  1
  O  O60  1  0.12350900  0.87623100  0.73038200  1
  O  O61  1  0.12397000  0.87700400  0.27123900  1
  O  O62  1  0.12351000  0.62329800  0.97851200  1
