# generated using pymatgen
data_LiMn(PO3)4
_symmetry_space_group_name_H-M   'P 1'
_cell_length_a   8.97477129
_cell_length_b   8.97477129
_cell_length_c   10.02987302
_cell_angle_alpha   56.24166623
_cell_angle_beta   56.24166623
_cell_angle_gamma   50.11100802
_symmetry_Int_Tables_number   1
_chemical_formula_structural   LiMn(PO3)4
_chemical_formula_sum   'Li2 Mn2 P8 O24'
_cell_volume   489.54936066
_cell_formula_units_Z   2
loop_
 _symmetry_equiv_pos_site_id
 _symmetry_equiv_pos_as_xyz
  1  'x, y, z'
loop_
 _atom_site_type_symbol
 _atom_site_label
 _atom_site_symmetry_multiplicity
 _atom_site_fract_x
 _atom_site_fract_y
 _atom_site_fract_z
 _atom_site_occupancy
  Li  Li0  1  0.83002300  0.16997700  0.25000000  1
  Li  Li1  1  0.16997700  0.83002300  0.75000000  1
  Mn  Mn2  1  0.28875400  0.71124600  0.25000000  1
  Mn  Mn3  1  0.71124600  0.28875400  0.75000000  1
  P  P4  1  0.68800700  0.03918700  0.11196500  1
  P  P5  1  0.28307200  0.43211100  0.15230100  1
  P  P6  1  0.56788900  0.71692800  0.34769900  1
  P  P7  1  0.96081300  0.31199300  0.38803500  1
  P  P8  1  0.03918700  0.68800700  0.61196500  1
  P  P9  1  0.43211100  0.28307200  0.65230100  1
  P  P10  1  0.71692800  0.56788900  0.84769900  1
  P  P11  1  0.31199300  0.96081300  0.88803500  1
  O  O12  1  0.17023200  0.59112200  0.02857000  1
  O  O13  1  0.46518000  0.23072300  0.09223700  1
  O  O14  1  0.75078400  0.02193200  0.22980300  1
  O  O15  1  0.66077800  0.85095600  0.16578100  1
  O  O16  1  0.17437800  0.94049400  0.07482000  1
  O  O17  1  0.14904400  0.33922200  0.33421900  1
  O  O18  1  0.97806800  0.24921600  0.27019700  1
  O  O19  1  0.52031100  0.61986000  0.29925400  1
  O  O20  1  0.38014000  0.47968900  0.20074600  1
  O  O21  1  0.76927700  0.53482000  0.40776300  1
  O  O22  1  0.40887800  0.82976800  0.47143000  1
  O  O23  1  0.05950500  0.82562200  0.42518000  1
  O  O24  1  0.94049400  0.17437800  0.57482000  1
  O  O25  1  0.59112200  0.17023200  0.52857000  1
  O  O26  1  0.23072300  0.46518000  0.59223700  1
  O  O27  1  0.61986000  0.52031100  0.79925400  1
  O  O28  1  0.47968900  0.38014000  0.70074600  1
  O  O29  1  0.02193200  0.75078400  0.72980300  1
  O  O30  1  0.85095600  0.66077800  0.66578100  1
  O  O31  1  0.82562200  0.05950600  0.92518000  1
  O  O32  1  0.33922200  0.14904400  0.83421900  1
  O  O33  1  0.24921600  0.97806800  0.77019700  1
  O  O34  1  0.53482000  0.76927700  0.90776300  1
  O  O35  1  0.82976800  0.40887800  0.97143000  1
