# generated using pymatgen
data_NaLi3Ti2Fe2(PO4)6
_symmetry_space_group_name_H-M   'P 1'
_cell_length_a   8.96034305
_cell_length_b   8.96034305
_cell_length_c   8.96034244
_cell_angle_alpha   56.44548382
_cell_angle_beta   56.44548382
_cell_angle_gamma   56.44548344
_symmetry_Int_Tables_number   1
_chemical_formula_structural   NaLi3Ti2Fe2(PO4)6
_chemical_formula_sum   'Na1 Li3 Ti2 Fe2 P6 O24'
_cell_volume   466.89263084
_cell_formula_units_Z   1
loop_
 _symmetry_equiv_pos_site_id
 _symmetry_equiv_pos_as_xyz
  1  'x, y, z'
loop_
 _atom_site_type_symbol
 _atom_site_label
 _atom_site_symmetry_multiplicity
 _atom_site_fract_x
 _atom_site_fract_y
 _atom_site_fract_z
 _atom_site_occupancy
  Na  Na0  1  0.49550600  0.49550600  0.49550600  1
  Li  Li1  1  0.26148900  0.92242400  0.67461100  1
  Li  Li2  1  0.67461100  0.26148900  0.92242400  1
  Li  Li3  1  0.92242400  0.67461100  0.26148900  1
  Ti  Ti4  1  0.85326000  0.85326000  0.85326000  1
  Ti  Ti5  1  0.14263500  0.14263500  0.14263500  1
  Fe  Fe6  1  0.35393700  0.35393700  0.35393700  1
  Fe  Fe7  1  0.65246200  0.65246200  0.65246200  1
  P  P8  1  0.24875600  0.53588800  0.96795800  1
  P  P9  1  0.04277400  0.74967100  0.46006100  1
  P  P10  1  0.46006100  0.04277400  0.74967100  1
  P  P11  1  0.53588800  0.96795800  0.24875600  1
  P  P12  1  0.96795800  0.24875600  0.53588800  1
  P  P13  1  0.74967100  0.46006100  0.04277400  1
  O  O14  1  0.46968900  0.86308800  0.75278000  1
  O  O15  1  0.75278000  0.46968900  0.86308800  1
  O  O16  1  0.19498500  0.38175100  0.00098300  1
  O  O17  1  0.11526900  0.74048800  0.87754300  1
  O  O18  1  0.26682400  0.11019000  0.90077700  1
  O  O19  1  0.86308800  0.75278000  0.46968900  1
  O  O20  1  0.99363800  0.80512600  0.62289500  1
  O  O21  1  0.45869500  0.50799700  0.82304700  1
  O  O22  1  0.20139800  0.55092700  0.47999100  1
  O  O23  1  0.62289500  0.99363800  0.80512600  1
  O  O24  1  0.11019000  0.90077700  0.26682400  1
  O  O25  1  0.47999100  0.20139800  0.55092700  1
  O  O26  1  0.50799700  0.82304700  0.45869500  1
  O  O27  1  0.87754300  0.11526900  0.74048800  1
  O  O28  1  0.38175100  0.00098300  0.19498500  1
  O  O29  1  0.82304700  0.45869500  0.50799700  1
  O  O30  1  0.55092700  0.47999100  0.20139800  1
  O  O31  1  0.00098300  0.19498500  0.38175100  1
  O  O32  1  0.16245600  0.21335800  0.52805900  1
  O  O33  1  0.74048800  0.87754300  0.11526900  1
  O  O34  1  0.90077700  0.26682400  0.11019000  1
  O  O35  1  0.80512600  0.62289500  0.99363800  1
  O  O36  1  0.21335800  0.52805900  0.16245600  1
  O  O37  1  0.52805900  0.16245600  0.21335800  1
