# generated using pymatgen
data_Li2Cr2FeSbO8
_symmetry_space_group_name_H-M   'P 1'
_cell_length_a   5.98894800
_cell_length_b   9.66813984
_cell_length_c   10.33666095
_cell_angle_alpha   90.12983274
_cell_angle_beta   90.18053476
_cell_angle_gamma   90.07746199
_symmetry_Int_Tables_number   1
_chemical_formula_structural   Li2Cr2FeSbO8
_chemical_formula_sum   'Li8 Cr8 Fe4 Sb4 O32'
_cell_volume   598.50814475
_cell_formula_units_Z   4
loop_
 _symmetry_equiv_pos_site_id
 _symmetry_equiv_pos_as_xyz
  1  'x, y, z'
loop_
 _atom_site_type_symbol
 _atom_site_label
 _atom_site_symmetry_multiplicity
 _atom_site_fract_x
 _atom_site_fract_y
 _atom_site_fract_z
 _atom_site_occupancy
  Li  Li0  1  0.00024900  0.09069700  0.66732200  1
  Li  Li1  1  0.99935700  0.00097800  0.99723200  1
  Li  Li2  1  0.99958500  0.50331000  0.99924200  1
  Li  Li3  1  0.00077600  0.58944800  0.33356700  1
  Li  Li4  1  0.49941000  0.09010000  0.16733500  1
  Li  Li5  1  0.50092500  0.59030300  0.83390300  1
  Li  Li6  1  0.50024800  0.00137500  0.50022200  1
  Li  Li7  1  0.49983600  0.50255300  0.49993200  1
  Cr  Cr8  1  0.00079400  0.27970600  0.17080100  1
  Cr  Cr9  1  0.75508800  0.27912400  0.41535500  1
  Cr  Cr10  1  0.74336200  0.77929400  0.08289900  1
  Cr  Cr11  1  0.50096900  0.27814700  0.66971700  1
  Cr  Cr12  1  0.49873800  0.77965100  0.32951800  1
  Cr  Cr13  1  0.25703800  0.27879200  0.91536900  1
  Cr  Cr14  1  0.24302500  0.77914200  0.58610000  1
  Cr  Cr15  1  0.24562700  0.27892100  0.41544400  1
  Fe  Fe16  1  0.99932500  0.77748200  0.82775300  1
  Fe  Fe17  1  0.75249800  0.77822200  0.58767600  1
  Fe  Fe18  1  0.74654800  0.27843700  0.91517200  1
  Fe  Fe19  1  0.25460900  0.77933600  0.08170900  1
  Sb  Sb20  1  0.00243100  0.50506500  0.66699600  1
  Sb  Sb21  1  0.99848600  0.00582800  0.33287400  1
  Sb  Sb22  1  0.50086300  0.50524700  0.16799200  1
  Sb  Sb23  1  0.49786400  0.00456500  0.83303400  1
  O  O24  1  0.99718300  0.88258600  0.67032200  1
  O  O25  1  0.00036900  0.14963900  0.48166500  1
  O  O26  1  0.00024300  0.69047500  0.99440300  1
  O  O27  1  0.99898900  0.18773800  0.99927600  1
  O  O28  1  0.00485500  0.39672700  0.83338000  1
  O  O29  1  0.99747700  0.89779000  0.16541300  1
  O  O30  1  0.00043100  0.38404000  0.33448400  1
  O  O31  1  0.00356400  0.64683600  0.51909000  1
  O  O32  1  0.77829100  0.15048300  0.25892900  1
  O  O33  1  0.78208700  0.64665400  0.74463300  1
  O  O34  1  0.74887200  0.89829800  0.41658900  1
  O  O35  1  0.74942200  0.39782300  0.58321600  1
  O  O36  1  0.75045200  0.89681200  0.91544400  1
  O  O37  1  0.75223400  0.39789600  0.08558600  1
  O  O38  1  0.71919400  0.14577600  0.75701700  1
  O  O39  1  0.72206100  0.65129700  0.24093200  1
  O  O40  1  0.49673600  0.88454600  0.16489800  1
  O  O41  1  0.49586400  0.14611400  0.98202600  1
  O  O42  1  0.50106300  0.68861200  0.50105500  1
  O  O43  1  0.49637300  0.89711600  0.66607000  1
  O  O44  1  0.50402100  0.38445500  0.83451800  1
  O  O45  1  0.50023400  0.18632700  0.49936700  1
  O  O46  1  0.50352100  0.64586500  0.01855200  1
  O  O47  1  0.50084800  0.39715100  0.33523000  1
  O  O48  1  0.27817200  0.15083300  0.75887400  1
  O  O49  1  0.27935700  0.64678600  0.24216600  1
  O  O50  1  0.24551700  0.89671500  0.91360900  1
  O  O51  1  0.24868400  0.39829100  0.08338500  1
  O  O52  1  0.24970500  0.89780900  0.41729300  1
  O  O53  1  0.25422200  0.39771800  0.58324200  1
  O  O54  1  0.22148500  0.14929000  0.25935300  1
  O  O55  1  0.22112800  0.65210200  0.74251600  1
