# generated using pymatgen
data_Li4CrP2O9
_symmetry_space_group_name_H-M   'P 1'
_cell_length_a   12.62691381
_cell_length_b   7.16087740
_cell_length_c   19.42456957
_cell_angle_alpha   90.00000000
_cell_angle_beta   98.17963660
_cell_angle_gamma   90.00000000
_symmetry_Int_Tables_number   1
_chemical_formula_structural   Li4CrP2O9
_chemical_formula_sum   'Li40 Cr10 P20 O90'
_cell_volume   1738.49759063
_cell_formula_units_Z   10
loop_
 _symmetry_equiv_pos_site_id
 _symmetry_equiv_pos_as_xyz
  1  'x, y, z'
loop_
 _atom_site_type_symbol
 _atom_site_label
 _atom_site_symmetry_multiplicity
 _atom_site_fract_x
 _atom_site_fract_y
 _atom_site_fract_z
 _atom_site_occupancy
  Li  Li0  1  0.09466783  0.51809901  0.94955872  1
  Li  Li1  1  0.08367838  0.26688403  0.83203509  1
  Li  Li2  1  0.10446935  0.01207217  0.70139828  1
  Li  Li3  1  0.10954152  0.79383866  0.55963127  1
  Li  Li4  1  0.09466783  0.48190099  0.44955872  1
  Li  Li5  1  0.08367838  0.73311597  0.33203509  1
  Li  Li6  1  0.10446935  0.98792783  0.20139828  1
  Li  Li7  1  0.10954152  0.20616134  0.05963127  1
  Li  Li8  1  0.28986807  0.79637810  0.97511206  1
  Li  Li9  1  0.29907299  0.95344415  0.83718371  1
  Li  Li10  1  0.30381637  0.54254767  0.84614017  1
  Li  Li11  1  0.29622013  0.97219106  0.64039213  1
  Li  Li12  1  0.28986807  0.20362190  0.47511206  1
  Li  Li13  1  0.29907299  0.04655585  0.33718371  1
  Li  Li14  1  0.30381637  0.45745233  0.34614017  1
  Li  Li15  1  0.29622013  0.02780894  0.14039213  1
  Li  Li16  1  0.51826696  0.25508726  0.86507439  1
  Li  Li17  1  0.50000000  0.58059959  0.75000000  1
  Li  Li18  1  0.48173304  0.25508726  0.63492561  1
  Li  Li19  1  0.50000000  0.00000000  0.50000000  1
  Li  Li20  1  0.51826696  0.74491274  0.36507439  1
  Li  Li21  1  0.50000000  0.41940041  0.25000000  1
  Li  Li22  1  0.48173304  0.74491274  0.13492561  1
  Li  Li23  1  0.50000000  0.00000000  0.00000000  1
  Li  Li24  1  0.70377987  0.97219106  0.85960787  1
  Li  Li25  1  0.69618363  0.54254767  0.65385983  1
  Li  Li26  1  0.70092701  0.95344415  0.66281629  1
  Li  Li27  1  0.71013193  0.79637810  0.52488794  1
  Li  Li28  1  0.70377987  0.02780894  0.35960787  1
  Li  Li29  1  0.69618363  0.45745233  0.15385983  1
  Li  Li30  1  0.70092701  0.04655585  0.16281629  1
  Li  Li31  1  0.71013193  0.20362190  0.02488794  1
  Li  Li32  1  0.89045848  0.79383866  0.94036873  1
  Li  Li33  1  0.89553065  0.01207217  0.79860172  1
  Li  Li34  1  0.91632162  0.26688403  0.66796491  1
  Li  Li35  1  0.90533217  0.51809901  0.55044128  1
  Li  Li36  1  0.89045848  0.20616134  0.44036873  1
  Li  Li37  1  0.89553065  0.98792783  0.29860172  1
  Li  Li38  1  0.91632162  0.73311597  0.16796491  1
  Li  Li39  1  0.90533217  0.48190099  0.05044128  1
  Cr  Cr40  1  0.10093780  0.53690860  0.69915001  1
  Cr  Cr41  1  0.10093780  0.46309140  0.19915001  1
  Cr  Cr42  1  0.29826537  0.51997080  0.59824976  1
  Cr  Cr43  1  0.29826537  0.48002920  0.09824976  1
  Cr  Cr44  1  0.50000000  0.50000000  0.50000000  1
  Cr  Cr45  1  0.50000000  0.50000000  0.00000000  1
  Cr  Cr46  1  0.70173463  0.51997080  0.90175024  1
  Cr  Cr47  1  0.70173463  0.48002920  0.40175024  1
  Cr  Cr48  1  0.89906220  0.53690860  0.80084999  1
  Cr  Cr49  1  0.89906220  0.46309140  0.30084999  1
  P  P50  1  0.10012828  0.80155197  0.83380407  1
  P  P51  1  0.09845549  0.24183233  0.56839185  1
  P  P52  1  0.10012828  0.19844803  0.33380407  1
  P  P53  1  0.09845549  0.75816767  0.06839185  1
  P  P54  1  0.29158386  0.25634265  0.95335552  1
  P  P55  1  0.30608606  0.27770305  0.74089986  1
  P  P56  1  0.29158386  0.74365735  0.45335552  1
  P  P57  1  0.30608606  0.72229695  0.24089986  1
  P  P58  1  0.50415965  0.79601143  0.87351669  1
  P  P59  1  0.49584035  0.79601143  0.62648331  1
  P  P60  1  0.50415965  0.20398857  0.37351669  1
  P  P61  1  0.49584035  0.20398857  0.12648331  1
  P  P62  1  0.69391394  0.27770305  0.75910014  1
  P  P63  1  0.70841614  0.25634265  0.54664448  1
  P  P64  1  0.69391394  0.72229695  0.25910014  1
  P  P65  1  0.70841614  0.74365735  0.04664448  1
  P  P66  1  0.90154451  0.24183233  0.93160815  1
  P  P67  1  0.89987172  0.80155197  0.66619593  1
  P  P68  1  0.90154451  0.75816767  0.43160815  1
  P  P69  1  0.89987172  0.19844803  0.16619593  1
  O  O70  1  0.01675957  0.66566067  0.86086753  1
  O  O71  1  0.00000000  0.42801510  0.75000000  1
  O  O72  1  0.00030167  0.27119371  0.51342860  1
  O  O73  1  0.05940565  0.00242562  0.83038174  1
  O  O74  1  0.01675957  0.33433933  0.36086753  1
  O  O75  1  0.00000000  0.57198490  0.25000000  1
  O  O76  1  0.07138754  0.31631754  0.63987835  1
  O  O77  1  0.11799505  0.75789162  0.75693957  1
  O  O78  1  0.00030167  0.72880629  0.01342860  1
  O  O79  1  0.05940565  0.99757438  0.33038174  1
  O  O80  1  0.14244836  0.04453019  0.58440629  1
  O  O81  1  0.20604618  0.76349608  0.88137023  1
  O  O82  1  0.07138754  0.68368246  0.13987835  1
  O  O83  1  0.19276634  0.33144982  0.90654983  1
  O  O84  1  0.11799505  0.24210838  0.25693957  1
  O  O85  1  0.21546418  0.41590948  0.75891083  1
  O  O86  1  0.19260225  0.63721730  0.64043404  1
  O  O87  1  0.18804440  0.36471711  0.53983238  1
  O  O88  1  0.14244836  0.95546981  0.08440629  1
  O  O89  1  0.20604618  0.23650392  0.38137023  1
  O  O90  1  0.19276634  0.66855018  0.40654983  1
  O  O91  1  0.26515341  0.07541953  0.74311362  1
  O  O92  1  0.21546418  0.58409052  0.25891083  1
  O  O93  1  0.19260225  0.36278270  0.14043404  1
  O  O94  1  0.32644804  0.05581593  0.94026143  1
  O  O95  1  0.18804440  0.63528289  0.03983238  1
  O  O96  1  0.27327375  0.72879135  0.53115616  1
  O  O97  1  0.32843042  0.31145849  0.66498527  1
  O  O98  1  0.26515341  0.92458047  0.24311362  1
  O  O99  1  0.38457529  0.39255366  0.93676476  1
  O  O100  1  0.32644804  0.94418407  0.44026143  1
  O  O101  1  0.40373009  0.32844437  0.79330310  1
  O  O102  1  0.27327375  0.27120865  0.03115616  1
  O  O103  1  0.40293499  0.76630315  0.82115108  1
  O  O104  1  0.32843042  0.68854151  0.16498527  1
  O  O105  1  0.41022948  0.66457228  0.65386782  1
  O  O106  1  0.39894156  0.39951020  0.55182976  1
  O  O107  1  0.38457529  0.60744634  0.43676476  1
  O  O108  1  0.48191898  0.73980342  0.94854344  1
  O  O109  1  0.40373009  0.67155563  0.29330310  1
  O  O110  1  0.40293499  0.23369685  0.32115108  1
  O  O111  1  0.45090407  0.99484423  0.61873805  1
  O  O112  1  0.41022948  0.33542772  0.15386782  1
  O  O113  1  0.39894156  0.60048980  0.05182976  1
  O  O114  1  0.54909593  0.99484423  0.88126195  1
  O  O115  1  0.48191898  0.26019658  0.44854344  1
  O  O116  1  0.51808102  0.73980342  0.55145656  1
  O  O117  1  0.45090407  0.00515577  0.11873805  1
  O  O118  1  0.60105844  0.39951020  0.94817024  1
  O  O119  1  0.58977052  0.66457228  0.84613218  1
  O  O120  1  0.54909593  0.00515577  0.38126195  1
  O  O121  1  0.59706501  0.76630315  0.67884892  1
  O  O122  1  0.59626991  0.32844437  0.70669690  1
  O  O123  1  0.51808102  0.26019658  0.05145656  1
  O  O124  1  0.61542471  0.39255366  0.56323524  1
  O  O125  1  0.60105844  0.60048980  0.44817024  1
  O  O126  1  0.58977052  0.33542772  0.34613218  1
  O  O127  1  0.67156958  0.31145849  0.83501473  1
  O  O128  1  0.59706501  0.23369685  0.17884892  1
  O  O129  1  0.72672625  0.72879135  0.96884384  1
  O  O130  1  0.59626991  0.67155563  0.20669690  1
  O  O131  1  0.67355196  0.05581593  0.55973857  1
  O  O132  1  0.61542471  0.60744634  0.06323524  1
  O  O133  1  0.73484659  0.07541953  0.75688638  1
  O  O134  1  0.67156958  0.68854151  0.33501473  1
  O  O135  1  0.72672625  0.27120865  0.46884384  1
  O  O136  1  0.81195560  0.36471711  0.96016762  1
  O  O137  1  0.67355196  0.94418407  0.05973857  1
  O  O138  1  0.80739775  0.63721730  0.85956596  1
  O  O139  1  0.78453582  0.41590948  0.74108917  1
  O  O140  1  0.73484659  0.92458047  0.25688638  1
  O  O141  1  0.80723366  0.33144982  0.59345017  1
  O  O142  1  0.79395382  0.76349608  0.61862977  1
  O  O143  1  0.85755164  0.04453019  0.91559371  1
  O  O144  1  0.81195560  0.63528289  0.46016762  1
  O  O145  1  0.80739775  0.36278270  0.35956596  1
  O  O146  1  0.78453582  0.58409052  0.24108917  1
  O  O147  1  0.88200495  0.75789162  0.74306043  1
  O  O148  1  0.80723366  0.66855018  0.09345017  1
  O  O149  1  0.92861246  0.31631754  0.86012165  1
  O  O150  1  0.79395382  0.23650392  0.11862977  1
  O  O151  1  0.85755164  0.95546981  0.41559371  1
  O  O152  1  0.94059435  0.00242562  0.66961826  1
  O  O153  1  0.99969833  0.27119371  0.98657140  1
  O  O154  1  0.88200495  0.24210838  0.24306043  1
  O  O155  1  0.92861246  0.68368246  0.36012165  1
  O  O156  1  0.98324043  0.66566067  0.63913247  1
  O  O157  1  0.94059435  0.99757438  0.16961826  1
  O  O158  1  0.99969833  0.72880629  0.48657140  1
  O  O159  1  0.98324043  0.33433933  0.13913247  1
