# generated using pymatgen
data_Li3Fe9O5F11
_symmetry_space_group_name_H-M   'P 1'
_cell_length_a   6.14335600
_cell_length_b   6.22469325
_cell_length_c   10.33002774
_cell_angle_alpha   75.36299506
_cell_angle_beta   74.34078784
_cell_angle_gamma   61.35659837
_symmetry_Int_Tables_number   1
_chemical_formula_structural   Li3Fe9O5F11
_chemical_formula_sum   'Li3 Fe9 O5 F11'
_cell_volume   330.24191127
_cell_formula_units_Z   1
loop_
 _symmetry_equiv_pos_site_id
 _symmetry_equiv_pos_as_xyz
  1  'x, y, z'
loop_
 _atom_site_type_symbol
 _atom_site_label
 _atom_site_symmetry_multiplicity
 _atom_site_fract_x
 _atom_site_fract_y
 _atom_site_fract_z
 _atom_site_occupancy
  Li  Li0  1  0.19815400  0.17401900  0.42721000  1
  Li  Li1  1  0.99863500  0.00367200  0.99444400  1
  Li  Li2  1  0.81674200  0.81706500  0.57674100  1
  Fe  Fe3  1  0.99876500  0.49987200  0.99677400  1
  Fe  Fe4  1  0.25113400  0.72787900  0.25195900  1
  Fe  Fe5  1  0.24219600  0.25218100  0.75067300  1
  Fe  Fe6  1  0.73460800  0.26037800  0.26134300  1
  Fe  Fe7  1  0.27592900  0.74735200  0.74521200  1
  Fe  Fe8  1  0.49333100  0.99127600  0.99079900  1
  Fe  Fe9  1  0.75147000  0.27417600  0.74498300  1
  Fe  Fe10  1  0.76777200  0.72939200  0.25425500  1
  Fe  Fe11  1  0.48979000  0.52546700  0.99040000  1
  O  O12  1  0.11401200  0.65062000  0.11771200  1
  O  O13  1  0.62598100  0.62282500  0.12630700  1
  O  O14  1  0.37459500  0.37003300  0.87883900  1
  O  O15  1  0.34024900  0.90304700  0.87489500  1
  O  O16  1  0.86465200  0.36073600  0.88792500  1
  F  F17  1  0.09428600  0.12259400  0.13197400  1
  F  F18  1  0.12542500  0.11234000  0.62357800  1
  F  F19  1  0.13098700  0.61319800  0.64560700  1
  F  F20  1  0.38449100  0.36481400  0.36487600  1
  F  F21  1  0.63789400  0.10025100  0.12195800  1
  F  F22  1  0.38716900  0.86702300  0.35449400  1
  F  F23  1  0.62706500  0.12954400  0.64087000  1
  F  F24  1  0.88823500  0.37805600  0.36615300  1
  F  F25  1  0.63454800  0.62772600  0.62848300  1
  F  F26  1  0.87763100  0.88915000  0.37336700  1
  F  F27  1  0.87425500  0.88531300  0.87816900  1
