# generated using pymatgen
data_Li4V3P8O29
_symmetry_space_group_name_H-M   'P 1'
_cell_length_a   9.78373175
_cell_length_b   9.78373175
_cell_length_c   14.37083649
_cell_angle_alpha   88.74073191
_cell_angle_beta   88.74073191
_cell_angle_gamma   59.51645691
_symmetry_Int_Tables_number   1
_chemical_formula_structural   Li4V3P8O29
_chemical_formula_sum   'Li8 V6 P16 O58'
_cell_volume   1185.07479601
_cell_formula_units_Z   2
loop_
 _symmetry_equiv_pos_site_id
 _symmetry_equiv_pos_as_xyz
  1  'x, y, z'
loop_
 _atom_site_type_symbol
 _atom_site_label
 _atom_site_symmetry_multiplicity
 _atom_site_fract_x
 _atom_site_fract_y
 _atom_site_fract_z
 _atom_site_occupancy
  Li  Li0  1  0.22484300  0.68390500  0.94016500  1
  Li  Li1  1  0.68390500  0.22484300  0.44016500  1
  Li  Li2  1  0.09946500  0.24080600  0.93869200  1
  Li  Li3  1  0.77256600  0.89577600  0.56054200  1
  Li  Li4  1  0.24080600  0.09946500  0.43869200  1
  Li  Li5  1  0.89577600  0.77256600  0.06054200  1
  Li  Li6  1  0.95055000  0.06469800  0.01290800  1
  Li  Li7  1  0.06469800  0.95055000  0.51290800  1
  V  V8  1  0.56370400  0.00336300  0.75627200  1
  V  V9  1  0.43637400  0.99627700  0.24286700  1
  V  V10  1  0.00336300  0.56370400  0.25627200  1
  V  V11  1  0.99627700  0.43637400  0.74286700  1
  V  V12  1  0.43916500  0.56156500  0.75199700  1
  V  V13  1  0.56156500  0.43916500  0.25199700  1
  P  P14  1  0.22311300  0.69143000  0.15529400  1
  P  P15  1  0.08689500  0.69963200  0.66618900  1
  P  P16  1  0.69143000  0.22311300  0.65529400  1
  P  P17  1  0.32307600  0.33568800  0.86724400  1
  P  P18  1  0.33568800  0.32307600  0.36724400  1
  P  P19  1  0.69963200  0.08689500  0.16618900  1
  P  P20  1  0.76884600  0.90814600  0.34491200  1
  P  P21  1  0.08592200  0.23154300  0.15376700  1
  P  P22  1  0.90814600  0.76884600  0.84491200  1
  P  P23  1  0.23154300  0.08592200  0.65376700  1
  P  P24  1  0.29964700  0.91683300  0.83527000  1
  P  P25  1  0.66479400  0.67648000  0.63601000  1
  P  P26  1  0.67648000  0.66479400  0.13601000  1
  P  P27  1  0.29590100  0.78463100  0.33500200  1
  P  P28  1  0.91683300  0.29964700  0.33527000  1
  P  P29  1  0.78463100  0.29590100  0.83500200  1
  O  O30  1  0.19182000  0.80435500  0.41579500  1
  O  O31  1  0.26106900  0.65605300  0.67131200  1
  O  O32  1  0.98671500  0.76355500  0.93465200  1
  O  O33  1  0.07817600  0.66412300  0.16926800  1
  O  O34  1  0.37698000  0.53495100  0.17204200  1
  O  O35  1  0.32362500  0.48812700  0.83575000  1
  O  O36  1  0.53495100  0.37698000  0.67204200  1
  O  O37  1  0.80435500  0.19182000  0.91579500  1
  O  O38  1  0.65605300  0.26106900  0.17131200  1
  O  O39  1  0.18977300  0.47507100  0.32039200  1
  O  O40  1  0.07699700  0.54569900  0.67131400  1
  O  O41  1  0.48812700  0.32362500  0.33575000  1
  O  O42  1  0.31142200  0.31773100  0.96959700  1
  O  O43  1  0.31773100  0.31142200  0.46959700  1
  O  O44  1  0.47507100  0.18977300  0.82039200  1
  O  O45  1  0.08347600  0.38814400  0.17049800  1
  O  O46  1  0.18003300  0.33490400  0.81924400  1
  O  O47  1  0.66412300  0.07817600  0.66926800  1
  O  O48  1  0.79366700  0.00623000  0.26180600  1
  O  O49  1  0.76355500  0.98671500  0.43465200  1
  O  O50  1  0.80817300  0.00061000  0.08652800  1
  O  O51  1  0.54569900  0.07699700  0.17131400  1
  O  O52  1  0.33490300  0.18003300  0.31924400  1
  O  O53  1  0.73710100  0.91389000  0.83901000  1
  O  O54  1  0.38814400  0.08347600  0.67049800  1
  O  O55  1  0.08999800  0.25888800  0.66732400  1
  O  O56  1  0.00623000  0.79366700  0.76180600  1
  O  O57  1  0.00061000  0.80817300  0.58652800  1
  O  O58  1  0.01556000  0.19270100  0.41158600  1
  O  O59  1  0.91389000  0.73710100  0.33901000  1
  O  O60  1  0.61550000  0.90693400  0.32456600  1
  O  O61  1  0.25888800  0.08999800  0.16732400  1
  O  O62  1  0.67466700  0.81601800  0.68365600  1
  O  O63  1  0.45759900  0.92055700  0.82620900  1
  O  O64  1  0.19270100  0.01556000  0.91158600  1
  O  O65  1  0.21914100  0.02224200  0.56283700  1
  O  O66  1  0.21263100  0.98283200  0.73587700  1
  O  O67  1  0.34092000  0.91742900  0.33251800  1
  O  O68  1  0.81601800  0.67466700  0.18365600  1
  O  O69  1  0.90693400  0.61550000  0.82456600  1
  O  O70  1  0.51938700  0.81589300  0.17586300  1
  O  O71  1  0.69234200  0.67388400  0.03357700  1
  O  O72  1  0.67388400  0.69234200  0.53357700  1
  O  O73  1  0.52211100  0.67258100  0.67910800  1
  O  O74  1  0.92055700  0.45759900  0.32620900  1
  O  O75  1  0.81589300  0.51938700  0.67586300  1
  O  O76  1  0.33790600  0.74317200  0.84068100  1
  O  O77  1  0.20379300  0.80989000  0.23796300  1
  O  O78  1  0.20864400  0.77078200  0.06328600  1
  O  O79  1  0.45166400  0.62092000  0.32708400  1
  O  O80  1  0.67258100  0.52211100  0.17910800  1
  O  O81  1  0.62092000  0.45166400  0.82708400  1
  O  O82  1  0.91742900  0.34092000  0.83251800  1
  O  O83  1  0.02224200  0.21914100  0.06283700  1
  O  O84  1  0.98283200  0.21263100  0.23587700  1
  O  O85  1  0.74317200  0.33790600  0.34068100  1
  O  O86  1  0.77078200  0.20864400  0.56328600  1
  O  O87  1  0.80989000  0.20379300  0.73796300  1
