# generated using pymatgen
data_LiCoPO4
_symmetry_space_group_name_H-M   'P 1'
_cell_length_a   7.52190300
_cell_length_b   8.49533000
_cell_length_c   16.88228373
_cell_angle_alpha   60.10124674
_cell_angle_beta   90.00000000
_cell_angle_gamma   90.00000000
_symmetry_Int_Tables_number   1
_chemical_formula_structural   LiCoPO4
_chemical_formula_sum   'Li12 Co12 P12 O48'
_cell_volume   935.21612300
_cell_formula_units_Z   12
loop_
 _symmetry_equiv_pos_site_id
 _symmetry_equiv_pos_as_xyz
  1  'x, y, z'
loop_
 _atom_site_type_symbol
 _atom_site_label
 _atom_site_symmetry_multiplicity
 _atom_site_fract_x
 _atom_site_fract_y
 _atom_site_fract_z
 _atom_site_occupancy
  Li  Li0  1  0.66429700  0.66336500  0.40536700  1
  Li  Li1  1  0.82557700  0.31481700  0.75996000  1
  Li  Li2  1  0.66450200  0.01294200  0.08381900  1
  Li  Li3  1  0.16450200  0.98705800  0.41618100  1
  Li  Li4  1  0.32557700  0.68518300  0.74004000  1
  Li  Li5  1  0.16429700  0.33663500  0.09463300  1
  Li  Li6  1  0.83570300  0.66336500  0.90536700  1
  Li  Li7  1  0.67442300  0.31481700  0.25996000  1
  Li  Li8  1  0.83549800  0.01294200  0.58381900  1
  Li  Li9  1  0.33549800  0.98705800  0.91618100  1
  Li  Li10  1  0.17442300  0.68518300  0.24004000  1
  Li  Li11  1  0.33570300  0.33663500  0.59463300  1
  Co  Co12  1  0.95189700  0.31696200  0.92598100  1
  Co  Co13  1  0.04059800  0.65438200  0.58570200  1
  Co  Co14  1  0.40785700  0.00293900  0.25187400  1
  Co  Co15  1  0.90785700  0.99706100  0.24812600  1
  Co  Co16  1  0.54059800  0.34561800  0.91429800  1
  Co  Co17  1  0.45189700  0.68303800  0.57401900  1
  Co  Co18  1  0.54810300  0.31696200  0.42598100  1
  Co  Co19  1  0.45940200  0.65438200  0.08570200  1
  Co  Co20  1  0.09214300  0.00293900  0.75187400  1
  Co  Co21  1  0.59214300  0.99706100  0.74812600  1
  Co  Co22  1  0.95940200  0.34561800  0.41429800  1
  Co  Co23  1  0.04810300  0.68303800  0.07401900  1
  P  P24  1  0.26135200  0.63856900  0.41238500  1
  P  P25  1  0.22558000  0.32448200  0.77140900  1
  P  P26  1  0.26173200  0.03893600  0.06967100  1
  P  P27  1  0.76173200  0.96106400  0.43032900  1
  P  P28  1  0.72558000  0.67551800  0.72859100  1
  P  P29  1  0.76135200  0.36143100  0.08761500  1
  P  P30  1  0.23864800  0.63856900  0.91238500  1
  P  P31  1  0.27442000  0.32448200  0.27140900  1
  P  P32  1  0.23826800  0.03893600  0.56967100  1
  P  P33  1  0.73826800  0.96106400  0.93032900  1
  P  P34  1  0.77442000  0.67551800  0.22859100  1
  P  P35  1  0.73864800  0.36143100  0.58761500  1
  O  O36  1  0.43863600  0.56794100  0.39581400  1
  O  O37  1  0.89272600  0.42236700  0.62641700  1
  O  O38  1  0.76607400  0.10355100  0.96167500  1
  O  O39  1  0.38152500  0.26146300  0.83972600  1
  O  O40  1  0.23741800  0.57996600  0.51571500  1
  O  O41  1  0.76471400  0.78238200  0.28258600  1
  O  O42  1  0.27101100  0.93096800  0.17683700  1
  O  O43  1  0.04824400  0.27246400  0.82504800  1
  O  O44  1  0.44141500  0.13970600  0.03447200  1
  O  O45  1  0.23080500  0.52974100  0.69723200  1
  O  O46  1  0.11090600  0.18083700  0.03893000  1
  O  O47  1  0.26597000  0.85181800  0.36006400  1
  O  O48  1  0.73080500  0.47025900  0.80276800  1
  O  O49  1  0.76597000  0.14818200  0.13993600  1
  O  O50  1  0.61090600  0.81916300  0.46107000  1
  O  O51  1  0.94141500  0.86029400  0.46552800  1
  O  O52  1  0.54824400  0.72753600  0.67495200  1
  O  O53  1  0.77101100  0.06903200  0.32316300  1
  O  O54  1  0.73741800  0.42003400  0.98428500  1
  O  O55  1  0.88152500  0.73853700  0.66027400  1
  O  O56  1  0.26471400  0.21761800  0.21741400  1
  O  O57  1  0.26607400  0.89644900  0.53832500  1
  O  O58  1  0.39272600  0.57763300  0.87358300  1
  O  O59  1  0.93863600  0.43205900  0.10418600  1
  O  O60  1  0.06136400  0.56794100  0.89581400  1
  O  O61  1  0.60727400  0.42236700  0.12641700  1
  O  O62  1  0.73392600  0.10355100  0.46167500  1
  O  O63  1  0.73528600  0.78238200  0.78258600  1
  O  O64  1  0.11847500  0.26146300  0.33972600  1
  O  O65  1  0.26258200  0.57996600  0.01571500  1
  O  O66  1  0.22898900  0.93096800  0.67683700  1
  O  O67  1  0.45175600  0.27246400  0.32504800  1
  O  O68  1  0.05858500  0.13970600  0.53447200  1
  O  O69  1  0.38909400  0.18083700  0.53893000  1
  O  O70  1  0.23403000  0.85181800  0.86006400  1
  O  O71  1  0.26919500  0.52974100  0.19723200  1
  O  O72  1  0.73403000  0.14818200  0.63993600  1
  O  O73  1  0.88909400  0.81916300  0.96107000  1
  O  O74  1  0.76919500  0.47025900  0.30276800  1
  O  O75  1  0.55858500  0.86029400  0.96552800  1
  O  O76  1  0.95175600  0.72753600  0.17495200  1
  O  O77  1  0.72898900  0.06903200  0.82316300  1
  O  O78  1  0.23528600  0.21761800  0.71741400  1
  O  O79  1  0.76258200  0.42003400  0.48428500  1
  O  O80  1  0.61847500  0.73853700  0.16027400  1
  O  O81  1  0.23392600  0.89644900  0.03832500  1
  O  O82  1  0.10727400  0.57763300  0.37358300  1
  O  O83  1  0.56136400  0.43205900  0.60418600  1
