# generated using pymatgen
data_LiTa3O8
_symmetry_space_group_name_H-M   'P 1'
_cell_length_a   7.78152900
_cell_length_b   8.99892700
_cell_length_c   16.98349300
_cell_angle_alpha   90.00000000
_cell_angle_beta   90.00000000
_cell_angle_gamma   90.00000000
_symmetry_Int_Tables_number   1
_chemical_formula_structural   LiTa3O8
_chemical_formula_sum   'Li8 Ta24 O64'
_cell_volume   1189.27608466
_cell_formula_units_Z   8
loop_
 _symmetry_equiv_pos_site_id
 _symmetry_equiv_pos_as_xyz
  1  'x, y, z'
loop_
 _atom_site_type_symbol
 _atom_site_label
 _atom_site_symmetry_multiplicity
 _atom_site_fract_x
 _atom_site_fract_y
 _atom_site_fract_z
 _atom_site_occupancy
  Li  Li0  1  0.50000000  0.07823600  0.09013500  1
  Li  Li1  1  0.00000000  0.31769800  0.25150200  1
  Li  Li2  1  0.50000000  0.08092100  0.41003900  1
  Li  Li3  1  0.00000000  0.53091000  0.49530100  1
  Li  Li4  1  0.00000000  0.92176400  0.59013500  1
  Li  Li5  1  0.50000000  0.68230200  0.75150200  1
  Li  Li6  1  0.00000000  0.91907900  0.91003900  1
  Li  Li7  1  0.50000000  0.46909000  0.99530100  1
  Ta  Ta8  1  0.25080800  0.80812700  0.05997200  1
  Ta  Ta9  1  0.74919200  0.80812700  0.05997200  1
  Ta  Ta10  1  0.74864300  0.39491000  0.12991300  1
  Ta  Ta11  1  0.25135700  0.39491000  0.12991300  1
  Ta  Ta12  1  0.24817200  0.68614100  0.25049500  1
  Ta  Ta13  1  0.74850100  0.05111500  0.24976900  1
  Ta  Ta14  1  0.25149900  0.05111500  0.24976900  1
  Ta  Ta15  1  0.75182800  0.68614100  0.25049500  1
  Ta  Ta16  1  0.74440900  0.39418200  0.37049800  1
  Ta  Ta17  1  0.25559100  0.39418200  0.37049800  1
  Ta  Ta18  1  0.25159900  0.81239700  0.43985200  1
  Ta  Ta19  1  0.74840100  0.81239700  0.43985200  1
  Ta  Ta20  1  0.75080800  0.19187300  0.55997200  1
  Ta  Ta21  1  0.24919200  0.19187300  0.55997200  1
  Ta  Ta22  1  0.24864300  0.60509000  0.62991300  1
  Ta  Ta23  1  0.75135700  0.60509000  0.62991300  1
  Ta  Ta24  1  0.74817200  0.31385900  0.75049500  1
  Ta  Ta25  1  0.25182800  0.31385900  0.75049500  1
  Ta  Ta26  1  0.24850100  0.94888500  0.74976900  1
  Ta  Ta27  1  0.75149900  0.94888500  0.74976900  1
  Ta  Ta28  1  0.24440900  0.60581800  0.87049800  1
  Ta  Ta29  1  0.75559100  0.60581800  0.87049800  1
  Ta  Ta30  1  0.75159900  0.18760300  0.93985200  1
  Ta  Ta31  1  0.24840100  0.18760300  0.93985200  1
  O  O32  1  0.74710500  0.99919000  0.99924400  1
  O  O33  1  0.25289500  0.99919000  0.99924400  1
  O  O34  1  0.77916200  0.33749600  0.02112900  1
  O  O35  1  0.22083800  0.33749600  0.02112900  1
  O  O36  1  0.00000000  0.80788200  0.04146300  1
  O  O37  1  0.50000000  0.84742100  0.07412900  1
  O  O38  1  0.50000000  0.41746100  0.10724400  1
  O  O39  1  0.75588800  0.61914700  0.13205600  1
  O  O40  1  0.24411200  0.61914700  0.13205600  1
  O  O41  1  0.00000000  0.38247800  0.14513400  1
  O  O42  1  0.29128500  0.18987900  0.16316000  1
  O  O43  1  0.70871500  0.18987900  0.16316000  1
  O  O44  1  0.77519200  0.87583000  0.17457000  1
  O  O45  1  0.22480800  0.87583000  0.17457000  1
  O  O46  1  0.50000000  0.69727100  0.25044300  1
  O  O47  1  0.73519800  0.45058300  0.25016900  1
  O  O48  1  0.00000000  0.67250500  0.25001700  1
  O  O49  1  0.26480200  0.45058300  0.25016900  1
  O  O50  1  0.50000000  0.01721100  0.25013300  1
  O  O51  1  0.00000000  0.09853400  0.24952700  1
  O  O52  1  0.77594800  0.87578400  0.32512700  1
  O  O53  1  0.22405200  0.87578400  0.32512700  1
  O  O54  1  0.28738400  0.18728700  0.33823800  1
  O  O55  1  0.71261600  0.18728700  0.33823800  1
  O  O56  1  0.00000000  0.38944800  0.35611300  1
  O  O57  1  0.75526700  0.61859900  0.36881000  1
  O  O58  1  0.24473300  0.61859900  0.36881000  1
  O  O59  1  0.50000000  0.41017200  0.38866500  1
  O  O60  1  0.50000000  0.84787300  0.42649100  1
  O  O61  1  0.00000000  0.79789600  0.45673300  1
  O  O62  1  0.79389300  0.34312200  0.48016500  1
  O  O63  1  0.20610700  0.34312200  0.48016500  1
  O  O64  1  0.75289500  0.00081000  0.49924400  1
  O  O65  1  0.24710500  0.00081000  0.49924400  1
  O  O66  1  0.27916200  0.66250400  0.52112900  1
  O  O67  1  0.72083800  0.66250400  0.52112900  1
  O  O68  1  0.50000000  0.19211800  0.54146300  1
  O  O69  1  0.00000000  0.15257900  0.57412900  1
  O  O70  1  0.00000000  0.58253900  0.60724400  1
  O  O71  1  0.25588800  0.38085300  0.63205600  1
  O  O72  1  0.74411200  0.38085300  0.63205600  1
  O  O73  1  0.50000000  0.61752200  0.64513400  1
  O  O74  1  0.79128500  0.81012100  0.66316000  1
  O  O75  1  0.20871500  0.81012100  0.66316000  1
  O  O76  1  0.27519200  0.12417000  0.67457000  1
  O  O77  1  0.72480800  0.12417000  0.67457000  1
  O  O78  1  0.00000000  0.30272900  0.75044300  1
  O  O79  1  0.00000000  0.98278900  0.75013300  1
  O  O80  1  0.23519800  0.54941700  0.75016900  1
  O  O81  1  0.50000000  0.32749500  0.75001700  1
  O  O82  1  0.50000000  0.90146600  0.74952700  1
  O  O83  1  0.76480200  0.54941700  0.75016900  1
  O  O84  1  0.27594800  0.12421600  0.82512700  1
  O  O85  1  0.72405200  0.12421600  0.82512700  1
  O  O86  1  0.78738400  0.81271300  0.83823800  1
  O  O87  1  0.21261600  0.81271300  0.83823800  1
  O  O88  1  0.50000000  0.61055200  0.85611300  1
  O  O89  1  0.25526700  0.38140100  0.86881000  1
  O  O90  1  0.74473300  0.38140100  0.86881000  1
  O  O91  1  0.00000000  0.58982800  0.88866500  1
  O  O92  1  0.00000000  0.15212700  0.92649100  1
  O  O93  1  0.50000000  0.20210400  0.95673300  1
  O  O94  1  0.29389300  0.65687800  0.98016500  1
  O  O95  1  0.70610700  0.65687800  0.98016500  1
