# generated using pymatgen
data_LiMn2(BO3)2
_symmetry_space_group_name_H-M   'P 1'
_cell_length_a   5.30948200
_cell_length_b   5.80472670
_cell_length_c   12.44055259
_cell_angle_alpha   92.59823652
_cell_angle_beta   102.29625389
_cell_angle_gamma   90.39607826
_symmetry_Int_Tables_number   1
_chemical_formula_structural   LiMn2(BO3)2
_chemical_formula_sum   'Li3 Mn6 B6 O18'
_cell_volume   374.18411313
_cell_formula_units_Z   3
loop_
 _symmetry_equiv_pos_site_id
 _symmetry_equiv_pos_as_xyz
  1  'x, y, z'
loop_
 _atom_site_type_symbol
 _atom_site_label
 _atom_site_symmetry_multiplicity
 _atom_site_fract_x
 _atom_site_fract_y
 _atom_site_fract_z
 _atom_site_occupancy
  Li  Li0  1  0.42730800  0.13978000  0.17444000  1
  Li  Li1  1  0.90546600  0.18667400  0.48520200  1
  Li  Li2  1  0.57754700  0.84989300  0.81975200  1
  Mn  Mn3  1  0.05136000  0.03520700  0.71660700  1
  Mn  Mn4  1  0.27637200  0.31705300  0.94536800  1
  Mn  Mn5  1  0.37876100  0.36715500  0.38037100  1
  Mn  Mn6  1  0.61483100  0.64212700  0.60987300  1
  Mn  Mn7  1  0.73196100  0.68327800  0.05672300  1
  Mn  Mn8  1  0.96757500  0.95124200  0.28663800  1
  B  B9  1  0.47475300  0.14513300  0.60537600  1
  B  B10  1  0.85909600  0.18582300  0.06650100  1
  B  B11  1  0.81394400  0.46150800  0.27624900  1
  B  B12  1  0.18459600  0.53708800  0.72694000  1
  B  B13  1  0.14588700  0.81045500  0.93643300  1
  B  B14  1  0.52252300  0.86391800  0.39064500  1
  O  O15  1  0.36040400  0.02562700  0.32769300  1
  O  O16  1  0.74395600  0.01247900  0.11984800  1
  O  O17  1  0.21141500  0.13357600  0.59364300  1
  O  O18  1  0.11552200  0.19332200  0.07188400  1
  O  O19  1  0.58197500  0.28901900  0.53732800  1
  O  O20  1  0.98132200  0.32560000  0.34798300  1
  O  O21  1  0.68704600  0.35046600  0.01629900  1
  O  O22  1  0.08016800  0.35469900  0.77569400  1
  O  O23  1  0.55120200  0.43150500  0.26068800  1
  O  O24  1  0.44144100  0.56426100  0.73619600  1
  O  O25  1  0.91130700  0.61759800  0.21356800  1
  O  O26  1  0.32487400  0.66788600  0.99602100  1
  O  O27  1  0.00905500  0.70009700  0.67670800  1
  O  O28  1  0.40670800  0.68888100  0.43861200  1
  O  O29  1  0.88484400  0.79341800  0.93219200  1
  O  O30  1  0.78110900  0.88844200  0.40888100  1
  O  O31  1  0.24357900  0.96931500  0.87158200  1
  O  O32  1  0.63984000  0.00774500  0.67630300  1
