# generated using pymatgen
data_Li4Co(OF)2
_symmetry_space_group_name_H-M   'P 1'
_cell_length_a   6.49257940
_cell_length_b   7.79064032
_cell_length_c   7.42102100
_cell_angle_alpha   89.99991182
_cell_angle_beta   89.99987861
_cell_angle_gamma   94.65579330
_symmetry_Int_Tables_number   1
_chemical_formula_structural   Li4Co(OF)2
_chemical_formula_sum   'Li16 Co4 O8 F8'
_cell_volume   374.12667771
_cell_formula_units_Z   4
loop_
 _symmetry_equiv_pos_site_id
 _symmetry_equiv_pos_as_xyz
  1  'x, y, z'
loop_
 _atom_site_type_symbol
 _atom_site_label
 _atom_site_symmetry_multiplicity
 _atom_site_fract_x
 _atom_site_fract_y
 _atom_site_fract_z
 _atom_site_occupancy
  Li  Li0  1  0.88218900  0.35364700  0.25002700  1
  Li  Li1  1  0.38219400  0.85364000  0.49996900  1
  Li  Li2  1  0.88219800  0.35363900  0.75003100  1
  Li  Li3  1  0.38219400  0.85364500  0.99997200  1
  Li  Li4  1  0.11780500  0.64635500  0.25002700  1
  Li  Li5  1  0.61780200  0.14636200  0.49997000  1
  Li  Li6  1  0.11780300  0.64636000  0.75003000  1
  Li  Li7  1  0.61780300  0.14635500  0.99997300  1
  Li  Li8  1  0.19024100  0.34053800  0.50000000  1
  Li  Li9  1  0.69023900  0.84053900  0.75000200  1
  Li  Li10  1  0.19024100  0.34052900  0.99999400  1
  Li  Li11  1  0.69024100  0.84053000  0.25000300  1
  Li  Li12  1  0.80975900  0.65947000  0.00000000  1
  Li  Li13  1  0.30975900  0.15946500  0.25000300  1
  Li  Li14  1  0.80976000  0.65946000  0.49999600  1
  Li  Li15  1  0.30975900  0.15946100  0.75000200  1
  Co  Co16  1  0.00003600  0.00001200  0.50006300  1
  Co  Co17  1  0.49997400  0.49999100  0.74993700  1
  Co  Co18  1  0.00001200  0.00000300  0.00006600  1
  Co  Co19  1  0.50006100  0.50001800  0.24993300  1
  O  O20  1  0.23002700  0.41409900  0.24998400  1
  O  O21  1  0.73002500  0.91409400  0.49999100  1
  O  O22  1  0.23005000  0.41410200  0.75001000  1
  O  O23  1  0.73004400  0.91410600  0.00001400  1
  O  O24  1  0.76992300  0.58588500  0.24998500  1
  O  O25  1  0.26994500  0.08589700  0.49999000  1
  O  O26  1  0.76997000  0.58590700  0.75001100  1
  O  O27  1  0.26994400  0.08589100  0.00001500  1
  F  F28  1  0.90419200  0.26789300  0.00004400  1
  F  F29  1  0.40419300  0.76789600  0.24995900  1
  F  F30  1  0.90419300  0.26789700  0.50000300  1
  F  F31  1  0.40419300  0.76789300  0.74999400  1
  F  F32  1  0.09580700  0.73210400  0.50000400  1
  F  F33  1  0.59581100  0.23210600  0.74999700  1
  F  F34  1  0.09580700  0.73210700  0.00004200  1
  F  F35  1  0.59580600  0.23210400  0.24995900  1
