# generated using pymatgen
data_Li4V3P8O29
_symmetry_space_group_name_H-M   'P 1'
_cell_length_a   9.77062500
_cell_length_b   9.78407030
_cell_length_c   14.13026201
_cell_angle_alpha   89.79403591
_cell_angle_beta   90.47251850
_cell_angle_gamma   119.89073850
_symmetry_Int_Tables_number   1
_chemical_formula_structural   Li4V3P8O29
_chemical_formula_sum   'Li8 V6 P16 O58'
_cell_volume   1171.07581780
_cell_formula_units_Z   2
loop_
 _symmetry_equiv_pos_site_id
 _symmetry_equiv_pos_as_xyz
  1  'x, y, z'
loop_
 _atom_site_type_symbol
 _atom_site_label
 _atom_site_symmetry_multiplicity
 _atom_site_fract_x
 _atom_site_fract_y
 _atom_site_fract_z
 _atom_site_occupancy
  Li  Li0  1  0.91319000  0.68331200  0.06252600  1
  Li  Li1  1  0.77268400  0.09547100  0.05819900  1
  Li  Li2  1  0.30797700  0.22195300  0.06009400  1
  Li  Li3  1  0.66965100  0.90271300  0.43794200  1
  Li  Li4  1  0.33088100  0.09191600  0.55910300  1
  Li  Li5  1  0.68285600  0.77283000  0.93983300  1
  Li  Li6  1  0.23251600  0.33387300  0.43975600  1
  Li  Li7  1  0.97564800  0.94669300  0.49534500  1
  V  V8  1  0.56675400  0.00200600  0.24937500  1
  V  V9  1  0.43105900  0.99587000  0.75378400  1
  V  V10  1  0.56970400  0.56186800  0.74483300  1
  V  V11  1  0.43255900  0.43385100  0.24888600  1
  V  V12  1  0.00504900  0.56713100  0.25701600  1
  V  V13  1  0.99817600  0.43551900  0.74713400  1
  P  P14  1  0.91407000  0.68381000  0.84386000  1
  P  P15  1  0.77688500  0.69120700  0.33832900  1
  P  P16  1  0.91818800  0.22414300  0.34161400  1
  P  P17  1  0.67031000  0.33730600  0.13125500  1
  P  P18  1  0.66281500  0.32730500  0.62933600  1
  P  P19  1  0.77437100  0.09176000  0.83834200  1
  P  P20  1  0.68429600  0.91185700  0.65742800  1
  P  P21  1  0.31994900  0.23051800  0.84251500  1
  P  P22  1  0.67880600  0.76765100  0.15622600  1
  P  P23  1  0.31526200  0.08824200  0.34499600  1
  P  P24  1  0.22656500  0.91261500  0.16342000  1
  P  P25  1  0.33631600  0.66515900  0.37236200  1
  P  P26  1  0.33627400  0.66288900  0.86862400  1
  P  P27  1  0.08300900  0.77918800  0.65934500  1
  P  P28  1  0.22476700  0.31403800  0.66105000  1
  P  P29  1  0.08286900  0.31580700  0.15607300  1
  O  O30  1  0.00179600  0.80025300  0.57664300  1
  O  O31  1  0.91635600  0.65741400  0.33431800  1
  O  O32  1  0.74910200  0.74996500  0.06602900  1
  O  O33  1  0.74441400  0.66133400  0.83550000  1
  O  O34  1  0.90575700  0.52418100  0.82056200  1
  O  O35  1  0.81758400  0.48623400  0.17664200  1
  O  O36  1  0.91748000  0.38272400  0.33021900  1
  O  O37  1  0.99036200  0.23624200  0.06998400  1
  O  O38  1  0.91656200  0.25983700  0.83375500  1
  O  O39  1  0.66665300  0.47948000  0.67512400  1
  O  O40  1  0.61870600  0.53830200  0.33209500  1
  O  O41  1  0.81071400  0.32816900  0.67463200  1
  O  O42  1  0.67593700  0.34357900  0.02565400  1
  O  O43  1  0.65820700  0.33262600  0.52472400  1
  O  O44  1  0.67329200  0.18667700  0.16960600  1
  O  O45  1  0.47872400  0.38161000  0.82033800  1
  O  O46  1  0.51679700  0.33128500  0.17011100  1
  O  O47  1  0.74526900  0.08507800  0.33833100  1
  O  O48  1  0.79480900  0.00220200  0.74826400  1
  O  O49  1  0.76584000  0.97911400  0.56647300  1
  O  O50  1  0.76060100  0.00237500  0.92744000  1
  O  O51  1  0.61999300  0.09817600  0.82055400  1
  O  O52  1  0.50982000  0.18120600  0.66896800  1
  O  O53  1  0.66264300  0.91697400  0.15742200  1
  O  O54  1  0.47169500  0.09067000  0.33094000  1
  O  O55  1  0.34033500  0.25829500  0.33330600  1
  O  O56  1  0.79720200  0.78927600  0.24129300  1
  O  O57  1  0.79673600  0.79994700  0.41804900  1
  O  O58  1  0.22743800  0.23005200  0.57317800  1
  O  O59  1  0.65151000  0.73986900  0.67000900  1
  O  O60  1  0.52936400  0.91450000  0.67226300  1
  O  O61  1  0.34515800  0.08626600  0.83144600  1
  O  O62  1  0.48904400  0.81110600  0.33406800  1
  O  O63  1  0.38075700  0.90531900  0.18056900  1
  O  O64  1  0.23407100  0.00567600  0.07851400  1
  O  O65  1  0.23166400  0.02135700  0.43617500  1
  O  O66  1  0.20136100  0.98980100  0.25804800  1
  O  O67  1  0.25876800  0.91630800  0.66381800  1
  O  O68  1  0.48604200  0.66292200  0.82994800  1
  O  O69  1  0.51821000  0.62023400  0.17828400  1
  O  O70  1  0.34258800  0.81661300  0.82177400  1
  O  O71  1  0.33755600  0.67226800  0.97309300  1
  O  O72  1  0.32519200  0.66006800  0.47751600  1
  O  O73  1  0.18915500  0.67123600  0.32463500  1
  O  O74  1  0.38207200  0.47269600  0.67432000  1
  O  O75  1  0.32234700  0.50983300  0.33216500  1
  O  O76  1  0.08294900  0.74278600  0.16330900  1
  O  O77  1  0.00901300  0.79881100  0.75742300  1
  O  O78  1  0.98837000  0.75098600  0.93634100  1
  O  O79  1  0.07789400  0.61805500  0.66948800  1
  O  O80  1  0.18588800  0.52445300  0.82011900  1
  O  O81  1  0.09152400  0.47539400  0.17908800  1
  O  O82  1  0.25151500  0.33821300  0.15777800  1
  O  O83  1  0.25042200  0.23760300  0.93341500  1
  O  O84  1  0.20503000  0.20918900  0.75350600  1
  O  O85  1  0.08493500  0.34499000  0.66479100  1
  O  O86  1  0.00624800  0.21535900  0.42582300  1
  O  O87  1  0.99771000  0.20524100  0.24741400  1
