# generated using pymatgen
data_Li10Mg12Fe(PO4)12
_symmetry_space_group_name_H-M   'P 1'
_cell_length_a   5.96716900
_cell_length_b   10.25419665
_cell_length_c   14.26189501
_cell_angle_alpha   89.97016370
_cell_angle_beta   89.71685630
_cell_angle_gamma   89.89368573
_symmetry_Int_Tables_number   1
_chemical_formula_structural   Li10Mg12Fe(PO4)12
_chemical_formula_sum   'Li10 Mg12 Fe1 P12 O48'
_cell_volume   872.65203853
_cell_formula_units_Z   1
loop_
 _symmetry_equiv_pos_site_id
 _symmetry_equiv_pos_as_xyz
  1  'x, y, z'
loop_
 _atom_site_type_symbol
 _atom_site_label
 _atom_site_symmetry_multiplicity
 _atom_site_fract_x
 _atom_site_fract_y
 _atom_site_fract_z
 _atom_site_occupancy
  Li  Li0  1  0.50011300  0.00001800  0.33338100  1
  Li  Li1  1  0.99993100  0.99984300  0.66661000  1
  Li  Li2  1  0.49988700  0.99998200  0.66661900  1
  Li  Li3  1  0.00000000  0.00000000  0.00000000  1
  Li  Li4  1  0.50000000  0.00000000  0.00000000  1
  Li  Li5  1  0.00006900  0.00015700  0.33339000  1
  Li  Li6  1  0.00023700  0.49979200  0.16647100  1
  Li  Li7  1  0.99976300  0.50020800  0.83352900  1
  Li  Li8  1  0.49945900  0.49998200  0.16661500  1
  Li  Li9  1  0.50054100  0.50001800  0.83338500  1
  Mg  Mg10  1  0.75006200  0.77792000  0.82737300  1
  Mg  Mg11  1  0.74945900  0.77817600  0.16052700  1
  Mg  Mg12  1  0.75586500  0.77804300  0.49427800  1
  Mg  Mg13  1  0.24974500  0.72211100  0.99406500  1
  Mg  Mg14  1  0.24925200  0.72290400  0.32724800  1
  Mg  Mg15  1  0.24744200  0.72239000  0.66061600  1
  Mg  Mg16  1  0.75074800  0.27709600  0.67275200  1
  Mg  Mg17  1  0.75025500  0.27788900  0.00593500  1
  Mg  Mg18  1  0.75255800  0.27761000  0.33938400  1
  Mg  Mg19  1  0.24993800  0.22208000  0.17262700  1
  Mg  Mg20  1  0.25054100  0.22182400  0.83947300  1
  Mg  Mg21  1  0.24413500  0.22195700  0.50572200  1
  Fe  Fe22  1  0.50000000  0.50000000  0.50000000  1
  P  P23  1  0.25014300  0.90458700  0.80592700  1
  P  P24  1  0.24995800  0.90459600  0.13936800  1
  P  P25  1  0.25062300  0.90457300  0.47267600  1
  P  P26  1  0.75004800  0.59545400  0.97268500  1
  P  P27  1  0.74778800  0.59572300  0.30529000  1
  P  P28  1  0.75758800  0.59620700  0.64001200  1
  P  P29  1  0.24995200  0.40454600  0.02731500  1
  P  P30  1  0.25221200  0.40427700  0.69471000  1
  P  P31  1  0.24241200  0.40379300  0.35998800  1
  P  P32  1  0.75004200  0.09540400  0.86063200  1
  P  P33  1  0.74985700  0.09541300  0.19407300  1
  P  P34  1  0.74937700  0.09542700  0.52732400  1
  O  O35  1  0.74979200  0.95361000  0.23230400  1
  O  O36  1  0.75007600  0.95361000  0.89903300  1
  O  O37  1  0.74949500  0.95366800  0.56567800  1
  O  O38  1  0.24997800  0.89794000  0.91390600  1
  O  O39  1  0.24958400  0.89793600  0.24704600  1
  O  O40  1  0.24992000  0.89799000  0.58044300  1
  O  O41  1  0.04461100  0.83380800  0.76054500  1
  O  O42  1  0.45608600  0.83320400  0.75990600  1
  O  O43  1  0.04449800  0.83343400  0.09362800  1
  O  O44  1  0.04511400  0.83408500  0.42650300  1
  O  O45  1  0.45603700  0.83341500  0.09323800  1
  O  O46  1  0.45667700  0.83290100  0.42697300  1
  O  O47  1  0.54393400  0.66714200  0.25847200  1
  O  O48  1  0.95564000  0.66637300  0.26095700  1
  O  O49  1  0.54441600  0.66660600  0.92691400  1
  O  O50  1  0.54510600  0.66547400  0.59360800  1
  O  O51  1  0.95604900  0.66655900  0.92679300  1
  O  O52  1  0.95468400  0.67203900  0.59601300  1
  O  O53  1  0.74994100  0.60207600  0.08048400  1
  O  O54  1  0.75108300  0.60231800  0.74809000  1
  O  O55  1  0.73963100  0.60383400  0.41297100  1
  O  O56  1  0.24980100  0.54635800  0.06562800  1
  O  O57  1  0.25036100  0.54635000  0.73223900  1
  O  O58  1  0.25637600  0.54662600  0.39583400  1
  O  O59  1  0.75019900  0.45364200  0.93437200  1
  O  O60  1  0.74362400  0.45337400  0.60416600  1
  O  O61  1  0.74963900  0.45365000  0.26776100  1
  O  O62  1  0.25005900  0.39792400  0.91951600  1
  O  O63  1  0.26036900  0.39616600  0.58702900  1
  O  O64  1  0.24891700  0.39768200  0.25191000  1
  O  O65  1  0.04436000  0.33362700  0.73904300  1
  O  O66  1  0.04395100  0.33344100  0.07320700  1
  O  O67  1  0.45606600  0.33285800  0.74152800  1
  O  O68  1  0.45558400  0.33339400  0.07308600  1
  O  O69  1  0.04531600  0.32796100  0.40398700  1
  O  O70  1  0.45489400  0.33452600  0.40639200  1
  O  O71  1  0.54332300  0.16709900  0.57302700  1
  O  O72  1  0.95488600  0.16591500  0.57349700  1
  O  O73  1  0.54391400  0.16679600  0.24009400  1
  O  O74  1  0.54396300  0.16658500  0.90676200  1
  O  O75  1  0.95550200  0.16656600  0.90637200  1
  O  O76  1  0.95538900  0.16619200  0.23945500  1
  O  O77  1  0.75008000  0.10201000  0.41955700  1
  O  O78  1  0.75002200  0.10206000  0.08609400  1
  O  O79  1  0.75041600  0.10206400  0.75295400  1
  O  O80  1  0.25050500  0.04633200  0.43432200  1
  O  O81  1  0.25020800  0.04639000  0.76769600  1
  O  O82  1  0.24992400  0.04639000  0.10096700  1
