# generated using pymatgen
data_Li3Cr4(PO4)6
_symmetry_space_group_name_H-M   'P 1'
_cell_length_a   8.54965915
_cell_length_b   8.64311855
_cell_length_c   8.58943011
_cell_angle_alpha   60.76528563
_cell_angle_beta   59.97268499
_cell_angle_gamma   89.77276859
_symmetry_Int_Tables_number   1
_chemical_formula_structural   Li3Cr4(PO4)6
_chemical_formula_sum   'Li3 Cr4 P6 O24'
_cell_volume   454.60750104
_cell_formula_units_Z   1
loop_
 _symmetry_equiv_pos_site_id
 _symmetry_equiv_pos_as_xyz
  1  'x, y, z'
loop_
 _atom_site_type_symbol
 _atom_site_label
 _atom_site_symmetry_multiplicity
 _atom_site_fract_x
 _atom_site_fract_y
 _atom_site_fract_z
 _atom_site_occupancy
  Li  Li0  1  0.35027700  0.55795900  0.61963800  1
  Li  Li1  1  0.03038400  0.05459400  0.61376400  1
  Li  Li2  1  0.74133200  0.33925600  0.36579300  1
  Cr  Cr3  1  0.84891500  0.57524100  0.78923900  1
  Cr  Cr4  1  0.35502200  0.07328400  0.79587400  1
  Cr  Cr5  1  0.64600000  0.92915100  0.20145300  1
  Cr  Cr6  1  0.15382500  0.43227400  0.20114700  1
  P  P7  1  0.52861000  0.74183900  0.72008300  1
  P  P8  1  0.24930600  0.75975700  0.27867600  1
  P  P9  1  0.75294600  0.24323300  0.72100700  1
  P  P10  1  0.03561200  0.25255000  0.00015000  1
  P  P11  1  0.47539100  0.25682800  0.27751400  1
  P  P12  1  0.95766500  0.75256400  0.99967000  1
  O  O13  1  0.11940300  0.93284300  0.87062900  1
  O  O14  1  0.01065200  0.44108000  0.86425500  1
  O  O15  1  0.48486800  0.89635300  0.75802100  1
  O  O16  1  0.06193200  0.71320200  0.48370600  1
  O  O17  1  0.36931800  0.55088500  0.90188300  1
  O  O18  1  0.23228700  0.26472800  0.82170800  1
  O  O19  1  0.28800900  0.95260700  0.08728200  1
  O  O20  1  0.54872100  0.77833200  0.51562100  1
  O  O21  1  0.72275600  0.73461000  0.69257300  1
  O  O22  1  0.94477400  0.76468200  0.81914100  1
  O  O23  1  0.40756200  0.75885100  0.32065500  1
  O  O24  1  0.24887400  0.61111100  0.23015400  1
  O  O25  1  0.75820200  0.39423600  0.76432900  1
  O  O26  1  0.04185400  0.24884300  0.17841200  1
  O  O27  1  0.59684400  0.24355900  0.67929900  1
  O  O28  1  0.27709700  0.25667000  0.32223300  1
  O  O29  1  0.72643700  0.04994800  0.90354400  1
  O  O30  1  0.47310900  0.21832800  0.47477400  1
  O  O31  1  0.76633400  0.74902300  0.17445400  1
  O  O32  1  0.63457300  0.44813800  0.08910000  1
  O  O33  1  0.93933400  0.27949400  0.51623300  1
  O  O34  1  0.52045400  0.10185700  0.23873200  1
  O  O35  1  0.98260400  0.56744600  0.13296200  1
  O  O36  1  0.87638400  0.07722000  0.11620100  1
