# generated using pymatgen
data_Li9Mn5(SiO8)2
_symmetry_space_group_name_H-M   'P 1'
_cell_length_a   5.07702900
_cell_length_b   5.32971205
_cell_length_c   10.97995468
_cell_angle_alpha   87.29489465
_cell_angle_beta   80.09576086
_cell_angle_gamma   84.00861087
_symmetry_Int_Tables_number   1
_chemical_formula_structural   Li9Mn5(SiO8)2
_chemical_formula_sum   'Li9 Mn5 Si2 O16'
_cell_volume   290.95138343
_cell_formula_units_Z   1
loop_
 _symmetry_equiv_pos_site_id
 _symmetry_equiv_pos_as_xyz
  1  'x, y, z'
loop_
 _atom_site_type_symbol
 _atom_site_label
 _atom_site_symmetry_multiplicity
 _atom_site_fract_x
 _atom_site_fract_y
 _atom_site_fract_z
 _atom_site_occupancy
  Li  Li0  1  0.58476300  0.73648200  0.94220900  1
  Li  Li1  1  0.67304600  0.26992600  0.81750400  1
  Li  Li2  1  0.81783300  0.75051500  0.69127000  1
  Li  Li3  1  0.93452700  0.24574800  0.56245700  1
  Li  Li4  1  0.06547300  0.75425200  0.43754300  1
  Li  Li5  1  0.18216700  0.24948500  0.30873000  1
  Li  Li6  1  0.32695400  0.73007400  0.18249600  1
  Li  Li7  1  0.41523700  0.26351800  0.05779100  1
  Li  Li8  1  0.00000000  0.00000000  0.00000000  1
  Mn  Mn9  1  0.24442100  0.00030400  0.75785800  1
  Mn  Mn10  1  0.37095700  0.50023100  0.62880600  1
  Mn  Mn11  1  0.50000000  0.00000000  0.50000000  1
  Mn  Mn12  1  0.62904300  0.49976900  0.37119400  1
  Mn  Mn13  1  0.75557900  0.99969600  0.24214200  1
  Si  Si14  1  0.12022800  0.50194900  0.87978400  1
  Si  Si15  1  0.87977200  0.49805100  0.12021600  1
  O  O16  1  0.95473300  0.81889200  0.84842600  1
  O  O17  1  0.30272200  0.18210400  0.89829300  1
  O  O18  1  0.58044800  0.10637200  0.65759700  1
  O  O19  1  0.43274400  0.60480600  0.79099500  1
  O  O20  1  0.04192600  0.39651500  0.73431700  1
  O  O21  1  0.70602800  0.60296100  0.53017400  1
  O  O22  1  0.16969600  0.89371300  0.59725400  1
  O  O23  1  0.29397200  0.39703900  0.46982600  1
  O  O24  1  0.83030400  0.10628700  0.40274600  1
  O  O25  1  0.95807400  0.60348500  0.26568300  1
  O  O26  1  0.41955200  0.89362800  0.34240300  1
  O  O27  1  0.69727800  0.81789600  0.10170700  1
  O  O28  1  0.04526700  0.18110800  0.15157400  1
  O  O29  1  0.56725600  0.39519400  0.20900500  1
  O  O30  1  0.81319700  0.40570400  0.97251900  1
  O  O31  1  0.18680300  0.59429600  0.02748100  1
