# generated using pymatgen
data_Li2Mn5(CuO6)2
_symmetry_space_group_name_H-M   'P 1'
_cell_length_a   5.37320549
_cell_length_b   8.76543311
_cell_length_c   9.73039045
_cell_angle_alpha   90.00000172
_cell_angle_beta   98.11039652
_cell_angle_gamma   89.99999445
_symmetry_Int_Tables_number   1
_chemical_formula_structural   Li2Mn5(CuO6)2
_chemical_formula_sum   'Li4 Mn10 Cu4 O24'
_cell_volume   453.70278701
_cell_formula_units_Z   2
loop_
 _symmetry_equiv_pos_site_id
 _symmetry_equiv_pos_as_xyz
  1  'x, y, z'
loop_
 _atom_site_type_symbol
 _atom_site_label
 _atom_site_symmetry_multiplicity
 _atom_site_fract_x
 _atom_site_fract_y
 _atom_site_fract_z
 _atom_site_occupancy
  Li  Li0  1  0.77933400  0.09447000  0.51567500  1
  Li  Li1  1  0.50286800  0.42086600  0.74248400  1
  Li  Li2  1  0.72066600  0.59447000  0.98432500  1
  Li  Li3  1  0.99713200  0.92086600  0.75751600  1
  Mn  Mn4  1  0.00378800  0.07548600  0.24823600  1
  Mn  Mn5  1  0.49435200  0.08571300  0.74981900  1
  Mn  Mn6  1  0.25280900  0.25664300  0.50567400  1
  Mn  Mn7  1  0.99243500  0.41297600  0.24980300  1
  Mn  Mn8  1  0.74193500  0.24648800  0.99316400  1
  Mn  Mn9  1  0.00564800  0.58571300  0.75018100  1
  Mn  Mn10  1  0.49621200  0.57548600  0.25176400  1
  Mn  Mn11  1  0.24719100  0.75664300  0.99432600  1
  Mn  Mn12  1  0.75806500  0.74648800  0.50683600  1
  Mn  Mn13  1  0.50756500  0.91297600  0.25019700  1
  Cu  Cu14  1  0.00241800  0.26036000  0.75676800  1
  Cu  Cu15  1  0.49163800  0.24666800  0.24095800  1
  Cu  Cu16  1  0.00836200  0.74666800  0.25904200  1
  Cu  Cu17  1  0.49758200  0.76036000  0.74323200  1
  O  O18  1  0.13961300  0.11094700  0.64744200  1
  O  O19  1  0.34976900  0.08562000  0.34900800  1
  O  O20  1  0.06162300  0.24923600  0.12373900  1
  O  O21  1  0.65942300  0.08050900  0.15045800  1
  O  O22  1  0.42854200  0.23824000  0.87810000  1
  O  O23  1  0.84109800  0.10544500  0.84926600  1
  O  O24  1  0.12831800  0.41214900  0.65093700  1
  O  O25  1  0.57326500  0.23313600  0.61529500  1
  O  O26  1  0.33516400  0.40119300  0.35151300  1
  O  O27  1  0.92967900  0.24223000  0.38366100  1
  O  O28  1  0.15023100  0.58562000  0.15099200  1
  O  O29  1  0.65448100  0.40930400  0.13753700  1
  O  O30  1  0.36038700  0.61094700  0.85255800  1
  O  O31  1  0.87462300  0.41765500  0.85905400  1
  O  O32  1  0.07145800  0.73824000  0.62190000  1
  O  O33  1  0.65890200  0.60544500  0.65073400  1
  O  O34  1  0.43837700  0.74923600  0.37626100  1
  O  O35  1  0.84057700  0.58050900  0.34954200  1
  O  O36  1  0.16483600  0.90119300  0.14848700  1
  O  O37  1  0.57032100  0.74223000  0.11633900  1
  O  O38  1  0.37168200  0.91214900  0.84906300  1
  O  O39  1  0.92673500  0.73313600  0.88470500  1
  O  O40  1  0.62537700  0.91765500  0.64094600  1
  O  O41  1  0.84551900  0.90930400  0.36246300  1
