# generated using pymatgen
data_LiFeSiO4
_symmetry_space_group_name_H-M   'P 1'
_cell_length_a   8.67365041
_cell_length_b   8.67365041
_cell_length_c   8.67365120
_cell_angle_alpha   107.98245565
_cell_angle_beta   107.98245565
_cell_angle_gamma   107.98245694
_symmetry_Int_Tables_number   1
_chemical_formula_structural   LiFeSiO4
_chemical_formula_sum   'Li6 Fe6 Si6 O24'
_cell_volume   528.19911179
_cell_formula_units_Z   6
loop_
 _symmetry_equiv_pos_site_id
 _symmetry_equiv_pos_as_xyz
  1  'x, y, z'
loop_
 _atom_site_type_symbol
 _atom_site_label
 _atom_site_symmetry_multiplicity
 _atom_site_fract_x
 _atom_site_fract_y
 _atom_site_fract_z
 _atom_site_occupancy
  Li  Li0  1  0.87299200  0.08676300  0.25847500  1
  Li  Li1  1  0.74152500  0.12700800  0.91323700  1
  Li  Li2  1  0.91323700  0.74152500  0.12700800  1
  Li  Li3  1  0.08676300  0.25847500  0.87299200  1
  Li  Li4  1  0.25847500  0.87299200  0.08676300  1
  Li  Li5  1  0.12700800  0.91323700  0.74152500  1
  Fe  Fe6  1  0.60652300  0.19203200  0.42579300  1
  Fe  Fe7  1  0.80796800  0.57420700  0.39347700  1
  Fe  Fe8  1  0.57420700  0.39347700  0.80796800  1
  Fe  Fe9  1  0.42579300  0.60652300  0.19203200  1
  Fe  Fe10  1  0.19203200  0.42579300  0.60652300  1
  Fe  Fe11  1  0.39347700  0.80796800  0.57420700  1
  Si  Si12  1  0.94800300  0.53988900  0.77079700  1
  Si  Si13  1  0.46011100  0.22920300  0.05199700  1
  Si  Si14  1  0.22920300  0.05199700  0.46011100  1
  Si  Si15  1  0.77079700  0.94800300  0.53988900  1
  Si  Si16  1  0.53988900  0.77079700  0.94800300  1
  Si  Si17  1  0.05199700  0.46011100  0.22920300  1
  O  O18  1  0.68081400  0.97366300  0.01926100  1
  O  O19  1  0.98073900  0.31918600  0.02633700  1
  O  O20  1  0.74250900  0.06341800  0.42122500  1
  O  O21  1  0.57877500  0.25749100  0.93658200  1
  O  O22  1  0.36701600  0.04830900  0.36259900  1
  O  O23  1  0.72425700  0.38588200  0.67732100  1
  O  O24  1  0.93658200  0.57877500  0.25749100  1
  O  O25  1  0.61411800  0.32267900  0.27574300  1
  O  O26  1  0.95169100  0.63740100  0.63298400  1
  O  O27  1  0.63740100  0.63298400  0.95169100  1
  O  O28  1  0.32267900  0.27574300  0.61411800  1
  O  O29  1  0.02633700  0.98073900  0.31918600  1
  O  O30  1  0.97366300  0.01926100  0.68081400  1
  O  O31  1  0.67732100  0.72425700  0.38588200  1
  O  O32  1  0.36259900  0.36701600  0.04830900  1
  O  O33  1  0.04830900  0.36259900  0.36701600  1
  O  O34  1  0.38588200  0.67732100  0.72425700  1
  O  O35  1  0.06341800  0.42122500  0.74250900  1
  O  O36  1  0.27574300  0.61411800  0.32267900  1
  O  O37  1  0.63298400  0.95169100  0.63740100  1
  O  O38  1  0.42122500  0.74250900  0.06341800  1
  O  O39  1  0.25749100  0.93658200  0.57877500  1
  O  O40  1  0.01926100  0.68081400  0.97366300  1
  O  O41  1  0.31918600  0.02633700  0.98073900  1
