# generated using pymatgen
data_Li15Mn15SiO32
_symmetry_space_group_name_H-M   'P 1'
_cell_length_a   8.34371400
_cell_length_b   8.42799415
_cell_length_c   8.47213676
_cell_angle_alpha   90.02394032
_cell_angle_beta   90.19460811
_cell_angle_gamma   90.67053547
_symmetry_Int_Tables_number   1
_chemical_formula_structural   Li15Mn15SiO32
_chemical_formula_sum   'Li15 Mn15 Si1 O32'
_cell_volume   595.72290694
_cell_formula_units_Z   1
loop_
 _symmetry_equiv_pos_site_id
 _symmetry_equiv_pos_as_xyz
  1  'x, y, z'
loop_
 _atom_site_type_symbol
 _atom_site_label
 _atom_site_symmetry_multiplicity
 _atom_site_fract_x
 _atom_site_fract_y
 _atom_site_fract_z
 _atom_site_occupancy
  Li  Li0  1  0.74028100  0.12757700  0.12721000  1
  Li  Li1  1  0.01811100  0.39176800  0.12743800  1
  Li  Li2  1  0.74477000  0.61736300  0.12337900  1
  Li  Li3  1  0.25523800  0.38598200  0.36937400  1
  Li  Li4  1  0.50027200  0.11861800  0.36953800  1
  Li  Li5  1  0.25142200  0.87136200  0.38055300  1
  Li  Li6  1  0.48596300  0.62289000  0.36758200  1
  Li  Li7  1  0.99988700  0.37938000  0.62064000  1
  Li  Li8  1  0.74706900  0.12255500  0.62509500  1
  Li  Li9  1  0.00083700  0.87430800  0.63579700  1
  Li  Li10  1  0.74941200  0.62827300  0.62758500  1
  Li  Li11  1  0.50027700  0.12230300  0.88186700  1
  Li  Li12  1  0.25689700  0.38133900  0.87827700  1
  Li  Li13  1  0.48572700  0.62063100  0.88431300  1
  Li  Li14  1  0.25275800  0.87441300  0.87172100  1
  Mn  Mn15  1  0.25000400  0.12950800  0.12625700  1
  Mn  Mn16  1  0.49189400  0.38014800  0.12605600  1
  Mn  Mn17  1  0.46684800  0.84191100  0.12676800  1
  Mn  Mn18  1  0.74518900  0.37823900  0.37457800  1
  Mn  Mn19  1  0.74921800  0.87159100  0.37139300  1
  Mn  Mn20  1  0.00539800  0.62375100  0.37074000  1
  Mn  Mn21  1  0.00201100  0.12958300  0.37876800  1
  Mn  Mn22  1  0.49681800  0.87371500  0.62752700  1
  Mn  Mn23  1  0.50401800  0.37585600  0.62370200  1
  Mn  Mn24  1  0.25141400  0.12503400  0.62430700  1
  Mn  Mn25  1  0.24685000  0.62545800  0.62673800  1
  Mn  Mn26  1  0.99869600  0.13473100  0.87371000  1
  Mn  Mn27  1  0.01116100  0.62093000  0.87463000  1
  Mn  Mn28  1  0.74676400  0.87311400  0.88020000  1
  Mn  Mn29  1  0.75291200  0.37652600  0.87635400  1
  Si  Si30  1  0.00494900  0.86773400  0.12065500  1
  O  O31  1  0.50514400  0.60666000  0.12557800  1
  O  O32  1  0.21574500  0.89682000  0.12205800  1
  O  O33  1  0.78793000  0.88066700  0.11351900  1
  O  O34  1  0.00482600  0.66067900  0.10803000  1
  O  O35  1  0.01073000  0.10595600  0.13955700  1
  O  O36  1  0.73300700  0.37124500  0.14136600  1
  O  O37  1  0.25700600  0.35374100  0.12467100  1
  O  O38  1  0.47983100  0.13227600  0.12529000  1
  O  O39  1  0.76976600  0.63894500  0.37710400  1
  O  O40  1  0.99375800  0.86305900  0.33819200  1
  O  O41  1  0.51688100  0.87104800  0.36536700  1
  O  O42  1  0.23318200  0.62641200  0.40007700  1
  O  O43  1  0.23566700  0.12592200  0.38542100  1
  O  O44  1  0.51127200  0.37343700  0.38940100  1
  O  O45  1  0.98413800  0.39021500  0.37097300  1
  O  O46  1  0.76804900  0.10842800  0.37825200  1
  O  O47  1  0.25567500  0.88755000  0.62567000  1
  O  O48  1  0.48289600  0.64037500  0.62525100  1
  O  O49  1  0.01207900  0.62871900  0.63864200  1
  O  O50  1  0.74016400  0.87556100  0.64494300  1
  O  O51  1  0.73922800  0.37533300  0.60982500  1
  O  O52  1  0.01524200  0.12346500  0.61254400  1
  O  O53  1  0.48416300  0.10918600  0.62646700  1
  O  O54  1  0.26711800  0.36291700  0.62504200  1
  O  O55  1  0.99186900  0.89313400  0.90120600  1
  O  O56  1  0.77459800  0.60960100  0.87383500  1
  O  O57  1  0.23959400  0.62688200  0.85310200  1
  O  O58  1  0.51615800  0.87147100  0.89012500  1
  O  O59  1  0.51891200  0.37452900  0.85890800  1
  O  O60  1  0.23267900  0.12774700  0.86345500  1
  O  O61  1  0.76561400  0.14071100  0.87529000  1
  O  O62  1  0.98981700  0.36592000  0.87888800  1
