# generated using pymatgen
data_LiNi5P3O13
_symmetry_space_group_name_H-M   'P 1'
_cell_length_a   6.02694000
_cell_length_b   8.41447813
_cell_length_c   9.76502700
_cell_angle_alpha   96.62891352
_cell_angle_beta   95.75888038
_cell_angle_gamma   90.10121185
_symmetry_Int_Tables_number   1
_chemical_formula_structural   LiNi5P3O13
_chemical_formula_sum   'Li2 Ni10 P6 O26'
_cell_volume   489.38118616
_cell_formula_units_Z   2
loop_
 _symmetry_equiv_pos_site_id
 _symmetry_equiv_pos_as_xyz
  1  'x, y, z'
loop_
 _atom_site_type_symbol
 _atom_site_label
 _atom_site_symmetry_multiplicity
 _atom_site_fract_x
 _atom_site_fract_y
 _atom_site_fract_z
 _atom_site_occupancy
  Li  Li0  1  0.22239400  0.42071000  0.45160000  1
  Li  Li1  1  0.77760600  0.57929000  0.54840000  1
  Ni  Ni2  1  0.01810600  0.11658600  0.77850600  1
  Ni  Ni3  1  0.26820900  0.84953800  0.92588500  1
  Ni  Ni4  1  0.28522300  0.79416500  0.61720300  1
  Ni  Ni5  1  0.22807600  0.58659500  0.10629500  1
  Ni  Ni6  1  0.52401700  0.11815800  0.76715900  1
  Ni  Ni7  1  0.47598300  0.88184100  0.23284100  1
  Ni  Ni8  1  0.77192400  0.41340500  0.89370500  1
  Ni  Ni9  1  0.71477700  0.20583500  0.38279700  1
  Ni  Ni10  1  0.73179100  0.15046200  0.07411500  1
  Ni  Ni11  1  0.98189400  0.88341400  0.22149400  1
  P  P12  1  0.26079100  0.47073700  0.77032200  1
  P  P13  1  0.24114000  0.11435500  0.47960400  1
  P  P14  1  0.25011800  0.18279300  0.10813900  1
  P  P15  1  0.74988200  0.81720700  0.89186100  1
  P  P16  1  0.75886000  0.88564500  0.52039600  1
  P  P17  1  0.73920900  0.52926300  0.22967800  1
  O  O18  1  0.04717200  0.36489300  0.76594000  1
  O  O19  1  0.03445400  0.21957500  0.45956400  1
  O  O20  1  0.04028400  0.11386900  0.16239500  1
  O  O21  1  0.27617700  0.11183600  0.95325500  1
  O  O22  1  0.27430500  0.59986100  0.89850700  1
  O  O23  1  0.25486200  0.05085600  0.63043400  1
  O  O24  1  0.25322500  0.55551600  0.63553900  1
  O  O25  1  0.24291500  0.96013800  0.37709600  1
  O  O26  1  0.21443000  0.81634900  0.10750800  1
  O  O27  1  0.23891200  0.36236100  0.13041600  1
  O  O28  1  0.46871200  0.36156600  0.78118900  1
  O  O29  1  0.43797100  0.23042700  0.47458000  1
  O  O30  1  0.52812200  0.87486600  0.80720000  1
  O  O31  1  0.47187800  0.12513400  0.19280000  1
  O  O32  1  0.56202900  0.76957300  0.52542000  1
  O  O33  1  0.53128800  0.63843400  0.21881100  1
  O  O34  1  0.76108800  0.63763900  0.86958400  1
  O  O35  1  0.78557000  0.18365100  0.89249200  1
  O  O36  1  0.75708500  0.03986200  0.62290400  1
  O  O37  1  0.74677500  0.44448400  0.36446100  1
  O  O38  1  0.74513800  0.94914400  0.36956600  1
  O  O39  1  0.72569500  0.40013900  0.10149300  1
  O  O40  1  0.72382300  0.88816400  0.04674500  1
  O  O41  1  0.95971600  0.88613100  0.83760500  1
  O  O42  1  0.96554600  0.78042500  0.54043600  1
  O  O43  1  0.95282800  0.63510700  0.23406000  1
