# generated using pymatgen
data_Li2Mn3(BO3)3
_symmetry_space_group_name_H-M   'P 1'
_cell_length_a   5.22870900
_cell_length_b   7.93368524
_cell_length_c   9.66854322
_cell_angle_alpha   105.13683210
_cell_angle_beta   103.42194613
_cell_angle_gamma   87.71284357
_symmetry_Int_Tables_number   1
_chemical_formula_structural   Li2Mn3(BO3)3
_chemical_formula_sum   'Li4 Mn6 B6 O18'
_cell_volume   376.49788305
_cell_formula_units_Z   2
loop_
 _symmetry_equiv_pos_site_id
 _symmetry_equiv_pos_as_xyz
  1  'x, y, z'
loop_
 _atom_site_type_symbol
 _atom_site_label
 _atom_site_symmetry_multiplicity
 _atom_site_fract_x
 _atom_site_fract_y
 _atom_site_fract_z
 _atom_site_occupancy
  Li  Li0  1  0.90689700  0.68940200  0.64980300  1
  Li  Li1  1  0.56742300  0.35551400  0.98542900  1
  Li  Li2  1  0.09031000  0.33333500  0.35837400  1
  Li  Li3  1  0.24375700  0.00664000  0.30904800  1
  Mn  Mn4  1  0.33039600  0.92031500  0.84033200  1
  Mn  Mn5  1  0.35003000  0.75545700  0.49481700  1
  Mn  Mn6  1  0.02129900  0.42564900  0.82995600  1
  Mn  Mn7  1  0.98181600  0.58555000  0.16686400  1
  Mn  Mn8  1  0.65822600  0.24375900  0.51447100  1
  Mn  Mn9  1  0.68083100  0.08139100  0.16379800  1
  B  B10  1  0.86891400  0.79363600  0.93136900  1
  B  B11  1  0.79238600  0.85954000  0.39199100  1
  B  B12  1  0.46122600  0.53367500  0.72746000  1
  B  B13  1  0.54776300  0.46966800  0.28573100  1
  B  B14  1  0.19982000  0.13456600  0.60444900  1
  B  B15  1  0.12885200  0.20245900  0.05816500  1
  O  O16  1  0.99647400  0.64702000  0.97402700  1
  O  O17  1  0.65497300  0.85508800  0.98994400  1
  O  O18  1  0.94922200  0.86295300  0.83456800  1
  O  O19  1  0.03231700  0.82527900  0.34662600  1
  O  O20  1  0.63252400  0.98688900  0.34447000  1
  O  O21  1  0.30237100  0.65525200  0.66888200  1
  O  O22  1  0.72944000  0.77190900  0.48449900  1
  O  O23  1  0.39331000  0.45044500  0.82156300  1
  O  O24  1  0.70259000  0.49504400  0.68628100  1
  O  O25  1  0.31276400  0.52357000  0.33767700  1
  O  O26  1  0.60235100  0.53097600  0.17732000  1
  O  O27  1  0.25731700  0.20016400  0.49692300  1
  O  O28  1  0.70114300  0.34292100  0.34049700  1
  O  O29  1  0.32397200  0.98745000  0.64044700  1
  O  O30  1  0.99679400  0.20552400  0.67350800  1
  O  O31  1  0.07895300  0.13967200  0.17008500  1
  O  O32  1  0.36232300  0.16049400  0.01031500  1
  O  O33  1  0.96142700  0.32143800  0.00064000  1
