# generated using pymatgen
data_LiVF3
_symmetry_space_group_name_H-M   'P 1'
_cell_length_a   7.03015800
_cell_length_b   8.06741788
_cell_length_c   21.04280028
_cell_angle_alpha   83.55320761
_cell_angle_beta   82.90641013
_cell_angle_gamma   86.18551699
_symmetry_Int_Tables_number   1
_chemical_formula_structural   LiVF3
_chemical_formula_sum   'Li18 V18 F54'
_cell_volume   1175.14386295
_cell_formula_units_Z   18
loop_
 _symmetry_equiv_pos_site_id
 _symmetry_equiv_pos_as_xyz
  1  'x, y, z'
loop_
 _atom_site_type_symbol
 _atom_site_label
 _atom_site_symmetry_multiplicity
 _atom_site_fract_x
 _atom_site_fract_y
 _atom_site_fract_z
 _atom_site_occupancy
  Li  Li0  1  0.73059400  0.69830400  0.85982900  1
  Li  Li1  1  0.86825500  0.31091200  0.29366500  1
  Li  Li2  1  0.64638800  0.40310700  0.65471000  1
  Li  Li3  1  0.73120800  0.33581200  0.44433500  1
  Li  Li4  1  0.81612100  0.99883500  0.08982600  1
  Li  Li5  1  0.53325100  0.43495400  0.79830400  1
  Li  Li6  1  0.38153500  0.27992900  0.98260600  1
  Li  Li7  1  0.69096400  0.04231600  0.23136800  1
  Li  Li8  1  0.49748600  0.86367800  0.41250900  1
  Li  Li9  1  0.50251400  0.13632200  0.58749100  1
  Li  Li10  1  0.30903600  0.95768400  0.76863200  1
  Li  Li11  1  0.61846500  0.72007100  0.01739400  1
  Li  Li12  1  0.46674900  0.56504600  0.20169600  1
  Li  Li13  1  0.18387900  0.00116500  0.91017400  1
  Li  Li14  1  0.26879200  0.66418800  0.55566500  1
  Li  Li15  1  0.35361200  0.59689300  0.34529000  1
  Li  Li16  1  0.13174500  0.68908800  0.70633500  1
  Li  Li17  1  0.26940600  0.30169600  0.14017100  1
  V  V18  1  0.89314900  0.35091500  0.96523400  1
  V  V19  1  0.94516000  0.01465300  0.57933100  1
  V  V20  1  0.79974300  0.04959100  0.73460200  1
  V  V21  1  0.99362800  0.67758000  0.19285800  1
  V  V22  1  0.74918100  0.72810800  0.50628000  1
  V  V23  1  0.59994900  0.02997000  0.90177000  1
  V  V24  1  0.86027900  0.70194500  0.34957900  1
  V  V25  1  0.60493200  0.76036100  0.65679200  1
  V  V26  1  0.78723800  0.39429300  0.12810500  1
  V  V27  1  0.21276200  0.60570700  0.87189500  1
  V  V28  1  0.39506800  0.23963900  0.34320800  1
  V  V29  1  0.13972100  0.29805500  0.65042100  1
  V  V30  1  0.40005100  0.97003000  0.09823000  1
  V  V31  1  0.25081900  0.27189200  0.49372000  1
  V  V32  1  0.00637200  0.32242000  0.80714200  1
  V  V33  1  0.20025700  0.95040900  0.26539800  1
  V  V34  1  0.05484000  0.98534700  0.42066900  1
  V  V35  1  0.10685100  0.64908500  0.03476600  1
  F  F36  1  0.99238000  0.17554000  0.89739700  1
  F  F37  1  0.92226300  0.51400000  0.87238200  1
  F  F38  1  0.90233800  0.85612400  0.66814300  1
  F  F39  1  0.79573700  0.91894600  0.82216400  1
  F  F40  1  0.96597200  0.17077200  0.48599300  1
  F  F41  1  0.84863600  0.20872600  0.64083800  1
  F  F42  1  0.65631000  0.78549300  0.93346300  1
  F  F43  1  0.95842900  0.52874700  0.28565300  1
  F  F44  1  0.73090700  0.25744900  0.78772500  1
  F  F45  1  0.83594900  0.55148200  0.44013800  1
  F  F46  1  0.90829200  0.86895900  0.26118200  1
  F  F47  1  0.63451700  0.28014800  0.94135800  1
  F  F48  1  0.72379500  0.58341200  0.59298100  1
  F  F49  1  0.78244700  0.89325100  0.41718800  1
  F  F50  1  0.67049000  0.93871600  0.57003800  1
  F  F51  1  0.50795900  0.60291600  0.85269800  1
  F  F52  1  0.53807200  0.96926300  0.70803200  1
  F  F53  1  0.59411100  0.54806600  0.71821000  1
  F  F54  1  0.87556300  0.21983200  0.05924700  1
  F  F55  1  0.81199400  0.24495800  0.21745100  1
  F  F56  1  0.67673300  0.26839000  0.36547200  1
  F  F57  1  0.82215000  0.54753000  0.03174400  1
  F  F58  1  0.72631800  0.60819000  0.17975200  1
  F  F59  1  0.38989900  0.01089100  0.84084900  1
  F  F60  1  0.53535400  0.27009300  0.50801000  1
  F  F61  1  0.65296600  0.93109900  0.03828500  1
  F  F62  1  0.43330100  0.29374500  0.64570400  1
  F  F63  1  0.56669900  0.70625500  0.35429600  1
  F  F64  1  0.34703400  0.06890100  0.96171500  1
  F  F65  1  0.46464600  0.72990700  0.49199000  1
  F  F66  1  0.61010100  0.98910900  0.15915100  1
  F  F67  1  0.27368200  0.39181000  0.82024800  1
  F  F68  1  0.17785000  0.45247000  0.96825600  1
  F  F69  1  0.32326700  0.73161000  0.63452800  1
  F  F70  1  0.18800600  0.75504200  0.78254900  1
  F  F71  1  0.12443700  0.78016800  0.94075300  1
  F  F72  1  0.40588900  0.45193400  0.28179000  1
  F  F73  1  0.46192800  0.03073700  0.29196800  1
  F  F74  1  0.49204100  0.39708400  0.14730200  1
  F  F75  1  0.32951000  0.06128400  0.42996200  1
  F  F76  1  0.21755300  0.10674900  0.58281200  1
  F  F77  1  0.27620500  0.41658800  0.40701900  1
  F  F78  1  0.36548300  0.71985200  0.05864200  1
  F  F79  1  0.09170800  0.13104100  0.73881800  1
  F  F80  1  0.16405100  0.44851800  0.55986200  1
  F  F81  1  0.26909300  0.74255100  0.21227500  1
  F  F82  1  0.04157100  0.47125300  0.71434700  1
  F  F83  1  0.34369000  0.21450700  0.06653700  1
  F  F84  1  0.15136400  0.79127400  0.35916200  1
  F  F85  1  0.03402800  0.82922800  0.51400700  1
  F  F86  1  0.20426300  0.08105400  0.17783600  1
  F  F87  1  0.09766200  0.14387600  0.33185700  1
  F  F88  1  0.07773700  0.48600000  0.12761800  1
  F  F89  1  0.00762000  0.82446000  0.10260300  1
