# generated using pymatgen
data_Li3Mn2(PO4)3
_symmetry_space_group_name_H-M   'P 1'
_cell_length_a   9.15604906
_cell_length_b   9.15604906
_cell_length_c   16.56240801
_cell_angle_alpha   64.61019841
_cell_angle_beta   64.61019841
_cell_angle_gamma   56.33586390
_symmetry_Int_Tables_number   1
_chemical_formula_structural   Li3Mn2(PO4)3
_chemical_formula_sum   'Li12 Mn8 P12 O48'
_cell_volume   1009.73395722
_cell_formula_units_Z   4
loop_
 _symmetry_equiv_pos_site_id
 _symmetry_equiv_pos_as_xyz
  1  'x, y, z'
loop_
 _atom_site_type_symbol
 _atom_site_label
 _atom_site_symmetry_multiplicity
 _atom_site_fract_x
 _atom_site_fract_y
 _atom_site_fract_z
 _atom_site_occupancy
  Li  Li0  1  0.49803600  0.73956000  0.84167600  1
  Li  Li1  1  0.06306400  0.23419100  0.42833200  1
  Li  Li2  1  0.63904700  0.36095300  0.75000000  1
  Li  Li3  1  0.76580900  0.93693600  0.07166800  1
  Li  Li4  1  0.26044000  0.50196400  0.65832400  1
  Li  Li5  1  0.00000000  0.50000000  0.00000000  1
  Li  Li6  1  0.73956000  0.49803600  0.34167600  1
  Li  Li7  1  0.23419100  0.06306400  0.92833200  1
  Li  Li8  1  0.36095300  0.63904700  0.25000000  1
  Li  Li9  1  0.93693600  0.76580900  0.57166800  1
  Li  Li10  1  0.50196400  0.26044000  0.15832400  1
  Li  Li11  1  0.50000000  0.00000000  0.50000000  1
  Mn  Mn12  1  0.21389700  0.70988800  0.03050100  1
  Mn  Mn13  1  0.86053000  0.79431000  0.33507600  1
  Mn  Mn14  1  0.20569000  0.13947000  0.16492400  1
  Mn  Mn15  1  0.29011200  0.78610300  0.46949900  1
  Mn  Mn16  1  0.70988800  0.21389700  0.53050100  1
  Mn  Mn17  1  0.79431000  0.86053000  0.83507600  1
  Mn  Mn18  1  0.13947000  0.20569000  0.66492400  1
  Mn  Mn19  1  0.78610300  0.29011200  0.96949900  1
  P  P20  1  0.02071600  0.97620100  0.86783800  1
  P  P21  1  0.05047500  0.54297200  0.19374300  1
  P  P22  1  0.66199500  0.59308500  0.52724100  1
  P  P23  1  0.40691500  0.33800500  0.97275900  1
  P  P24  1  0.45702800  0.94952500  0.30625700  1
  P  P25  1  0.02379900  0.97928400  0.63216200  1
  P  P26  1  0.97620100  0.02071600  0.36783800  1
  P  P27  1  0.54297200  0.05047500  0.69374300  1
  P  P28  1  0.59308500  0.66199500  0.02724100  1
  P  P29  1  0.33800500  0.40691500  0.47275900  1
  P  P30  1  0.94952500  0.45702800  0.80625700  1
  P  P31  1  0.97928400  0.02379900  0.13216200  1
  O  O32  1  0.58800600  0.92874300  0.79047700  1
  O  O33  1  0.71358200  0.97669600  0.61126700  1
  O  O34  1  0.82241900  0.99018600  0.37204500  1
  O  O35  1  0.13743400  0.93893700  0.05126500  1
  O  O36  1  0.45812200  0.69490600  0.97871800  1
  O  O37  1  0.01077800  0.86469300  0.21978000  1
  O  O38  1  0.20766000  0.89386900  0.88420200  1
  O  O39  1  0.24952500  0.50050600  0.17325000  1
  O  O40  1  0.80098800  0.67300900  0.46674600  1
  O  O41  1  0.60756300  0.97461100  0.30707800  1
  O  O42  1  0.67539200  0.51030200  0.62614100  1
  O  O43  1  0.92874300  0.58800600  0.29047700  1
  O  O44  1  0.24165700  0.52931500  0.98236400  1
  O  O45  1  0.97669600  0.71358200  0.11126700  1
  O  O46  1  0.47068500  0.75834300  0.51763600  1
  O  O47  1  0.99018600  0.82241900  0.87204500  1
  O  O48  1  0.48969800  0.32460800  0.87385800  1
  O  O49  1  0.93893700  0.13743400  0.55126500  1
  O  O50  1  0.02538900  0.39243700  0.19292200  1
  O  O51  1  0.69490600  0.45812200  0.47871800  1
  O  O52  1  0.86469300  0.01077800  0.71978000  1
  O  O53  1  0.32699100  0.19901200  0.03325400  1
  O  O54  1  0.10613100  0.79234000  0.61579800  1
  O  O55  1  0.49949400  0.75047500  0.32675000  1
  O  O56  1  0.50050600  0.24952500  0.67325000  1
  O  O57  1  0.89386900  0.20766000  0.38420200  1
  O  O58  1  0.67300900  0.80098800  0.96674600  1
  O  O59  1  0.13530700  0.98922200  0.28022000  1
  O  O60  1  0.30509400  0.54187800  0.52128200  1
  O  O61  1  0.97461100  0.60756300  0.80707800  1
  O  O62  1  0.06106300  0.86256600  0.44873500  1
  O  O63  1  0.51030200  0.67539200  0.12614100  1
  O  O64  1  0.00981400  0.17758100  0.12795500  1
  O  O65  1  0.52931500  0.24165700  0.48236400  1
  O  O66  1  0.02330400  0.28641800  0.88873300  1
  O  O67  1  0.75834300  0.47068500  0.01763600  1
  O  O68  1  0.07125700  0.41199400  0.70952300  1
  O  O69  1  0.32460800  0.48969800  0.37385900  1
  O  O70  1  0.39243700  0.02538900  0.69292200  1
  O  O71  1  0.19901200  0.32699100  0.53325400  1
  O  O72  1  0.75047500  0.49949400  0.82675000  1
  O  O73  1  0.79234000  0.10613100  0.11579800  1
  O  O74  1  0.98922200  0.13530700  0.78022000  1
  O  O75  1  0.54187800  0.30509400  0.02128200  1
  O  O76  1  0.86256600  0.06106300  0.94873500  1
  O  O77  1  0.17758100  0.00981400  0.62795500  1
  O  O78  1  0.28641800  0.02330400  0.38873300  1
  O  O79  1  0.41199400  0.07125700  0.20952300  1
