# generated using pymatgen
data_LiCoPO4
_symmetry_space_group_name_H-M   'P 1'
_cell_length_a   10.06991679
_cell_length_b   10.06991679
_cell_length_c   16.43236571
_cell_angle_alpha   82.24549974
_cell_angle_beta   82.24549974
_cell_angle_gamma   58.93756153
_symmetry_Int_Tables_number   1
_chemical_formula_structural   LiCoPO4
_chemical_formula_sum   'Li16 Co16 P16 O64'
_cell_volume   1410.11163133
_cell_formula_units_Z   16
loop_
 _symmetry_equiv_pos_site_id
 _symmetry_equiv_pos_as_xyz
  1  'x, y, z'
loop_
 _atom_site_type_symbol
 _atom_site_label
 _atom_site_symmetry_multiplicity
 _atom_site_fract_x
 _atom_site_fract_y
 _atom_site_fract_z
 _atom_site_occupancy
  Li  Li0  1  0.19915100  0.81277000  0.00296200  1
  Li  Li1  1  0.81277000  0.19915100  0.50296200  1
  Li  Li2  1  0.70135200  0.57743500  0.25319500  1
  Li  Li3  1  0.25958900  0.07445900  0.25197200  1
  Li  Li4  1  0.14020200  0.31349900  0.00182700  1
  Li  Li5  1  0.57743500  0.70135200  0.75319500  1
  Li  Li6  1  0.70173500  0.81142100  0.00361100  1
  Li  Li7  1  0.07445900  0.25958900  0.75197200  1
  Li  Li8  1  0.31349900  0.14020200  0.50182700  1
  Li  Li9  1  0.81142100  0.70173500  0.50361100  1
  Li  Li10  1  0.20390500  0.56967700  0.25212800  1
  Li  Li11  1  0.75986300  0.08118400  0.25308000  1
  Li  Li12  1  0.63974700  0.31241300  0.00281200  1
  Li  Li13  1  0.56967700  0.20390500  0.75212800  1
  Li  Li14  1  0.08118400  0.75986300  0.75308000  1
  Li  Li15  1  0.31241300  0.63974700  0.50281200  1
  Co  Co16  1  0.88468700  0.26675100  0.12847800  1
  Co  Co17  1  0.44578400  0.76863700  0.12781400  1
  Co  Co18  1  0.26675100  0.88468700  0.62847800  1
  Co  Co19  1  0.76863700  0.44578400  0.62781400  1
  Co  Co20  1  0.00460400  0.32540000  0.37834100  1
  Co  Co21  1  0.51033500  0.88023300  0.37879500  1
  Co  Co22  1  0.32540000  0.00460400  0.87834100  1
  Co  Co23  1  0.88023300  0.51033500  0.87879500  1
  Co  Co24  1  0.38223600  0.26999400  0.12780700  1
  Co  Co25  1  0.94572800  0.76714700  0.12969900  1
  Co  Co26  1  0.26999400  0.38223600  0.62780700  1
  Co  Co27  1  0.76714700  0.94572800  0.62969900  1
  Co  Co28  1  0.00939900  0.82589000  0.37925000  1
  Co  Co29  1  0.50482200  0.38123000  0.37896400  1
  Co  Co30  1  0.82589000  0.00939900  0.87925000  1
  Co  Co31  1  0.38123000  0.50482200  0.87896400  1
  P  P32  1  0.10153300  0.91462700  0.19066200  1
  P  P33  1  0.91462700  0.10153300  0.69066200  1
  P  P34  1  0.16844000  0.98257100  0.43966300  1
  P  P35  1  0.66549200  0.53706700  0.44106300  1
  P  P36  1  0.98257100  0.16844000  0.93966300  1
  P  P37  1  0.53706700  0.66549200  0.94106300  1
  P  P38  1  0.04333800  0.41693400  0.18876300  1
  P  P39  1  0.60211800  0.91811500  0.19076100  1
  P  P40  1  0.41693400  0.04333800  0.68876300  1
  P  P41  1  0.91811500  0.60211800  0.69076100  1
  P  P42  1  0.16544700  0.48193800  0.43968400  1
  P  P43  1  0.66699900  0.03868800  0.44164300  1
  P  P44  1  0.48193800  0.16544700  0.93968400  1
  P  P45  1  0.03868800  0.66699900  0.94164300  1
  P  P46  1  0.54475100  0.41843100  0.18905200  1
  P  P47  1  0.41843100  0.54475100  0.68905200  1
  O  O48  1  0.66288100  0.33962900  0.11499000  1
  O  O49  1  0.95507900  0.07678500  0.20443500  1
  O  O50  1  0.52819500  0.57661900  0.20158700  1
  O  O51  1  0.41916900  0.74322800  0.01530300  1
  O  O52  1  0.33962900  0.66288100  0.61499000  1
  O  O53  1  0.50916500  0.55078600  0.42680800  1
  O  O54  1  0.98858800  0.23890400  0.01681200  1
  O  O55  1  0.24781500  0.93168700  0.17977000  1
  O  O56  1  0.07678500  0.95507900  0.70443500  1
  O  O57  1  0.00766900  0.13112300  0.42634000  1
  O  O58  1  0.57661900  0.52819500  0.70158700  1
  O  O59  1  0.74322800  0.41916900  0.51530300  1
  O  O60  1  0.55078600  0.50916500  0.92680800  1
  O  O61  1  0.77997800  0.47507800  0.36313800  1
  O  O62  1  0.28462900  0.97386000  0.36465800  1
  O  O63  1  0.88258200  0.44230900  0.17327200  1
  O  O64  1  0.23890400  0.98858800  0.51681200  1
  O  O65  1  0.93168700  0.24781500  0.67977000  1
  O  O66  1  0.13112300  0.00766900  0.92634000  1
  O  O67  1  0.63465300  0.69960500  0.45713600  1
  O  O68  1  0.59645100  0.84447300  0.11461900  1
  O  O69  1  0.10939300  0.30066100  0.26535400  1
  O  O70  1  0.60777500  0.80750400  0.26808000  1
  O  O71  1  0.47507800  0.77997800  0.86313800  1
  O  O72  1  0.97386000  0.28462900  0.86465800  1
  O  O73  1  0.44230900  0.88258200  0.67327200  1
  O  O74  1  0.16063000  0.34414600  0.11334800  1
  O  O75  1  0.45294100  0.07917700  0.20275200  1
  O  O76  1  0.13899300  0.34129800  0.45130600  1
  O  O77  1  0.69960500  0.63465300  0.95713600  1
  O  O78  1  0.84447300  0.59645100  0.61461900  1
  O  O79  1  0.30066100  0.10939300  0.76535400  1
  O  O80  1  0.80750400  0.60777500  0.76808000  1
  O  O81  1  0.02665500  0.57402100  0.20377300  1
  O  O82  1  0.92152700  0.74088200  0.01669400  1
  O  O83  1  0.34414600  0.16063000  0.61334800  1
  O  O84  1  0.51210100  0.05109900  0.42550400  1
  O  O85  1  0.48514300  0.24074000  0.01562100  1
  O  O86  1  0.74721900  0.93686400  0.17892200  1
  O  O87  1  0.07917700  0.45294100  0.70275200  1
  O  O88  1  0.34129800  0.13899300  0.95130600  1
  O  O89  1  0.00675100  0.63374300  0.42736600  1
  O  O90  1  0.57402100  0.02665500  0.70377300  1
  O  O91  1  0.74088200  0.92152700  0.51669400  1
  O  O92  1  0.05109900  0.51210100  0.92550400  1
  O  O93  1  0.27994700  0.47025200  0.36312000  1
  O  O94  1  0.78593500  0.97687000  0.36537000  1
  O  O95  1  0.24074000  0.48514300  0.51562100  1
  O  O96  1  0.38477500  0.44246500  0.17331000  1
  O  O97  1  0.93686400  0.74721900  0.67892200  1
  O  O98  1  0.63374300  0.00675100  0.92736600  1
  O  O99  1  0.63317800  0.20231400  0.45758900  1
  O  O100  1  0.09297200  0.84737400  0.11275900  1
  O  O101  1  0.10721700  0.79900900  0.26502100  1
  O  O102  1  0.60850700  0.30924600  0.26836200  1
  O  O103  1  0.47025200  0.27994700  0.86312000  1
  O  O104  1  0.97687000  0.78593500  0.86537000  1
  O  O105  1  0.44246500  0.38477500  0.67331000  1
  O  O106  1  0.20231400  0.63317800  0.95758900  1
  O  O107  1  0.14666300  0.83918600  0.45036300  1
  O  O108  1  0.84737400  0.09297200  0.61275900  1
  O  O109  1  0.79900900  0.10721700  0.76502100  1
  O  O110  1  0.30924600  0.60850700  0.76836200  1
  O  O111  1  0.83918600  0.14666300  0.95036300  1
