# generated using pymatgen
data_LiMnSiO4
_symmetry_space_group_name_H-M   'P 1'
_cell_length_a   5.10989900
_cell_length_b   7.05825200
_cell_length_c   9.49029500
_cell_angle_alpha   90.00000000
_cell_angle_beta   90.00000000
_cell_angle_gamma   90.00000000
_symmetry_Int_Tables_number   1
_chemical_formula_structural   LiMnSiO4
_chemical_formula_sum   'Li4 Mn4 Si4 O16'
_cell_volume   342.28604115
_cell_formula_units_Z   4
loop_
 _symmetry_equiv_pos_site_id
 _symmetry_equiv_pos_as_xyz
  1  'x, y, z'
loop_
 _atom_site_type_symbol
 _atom_site_label
 _atom_site_symmetry_multiplicity
 _atom_site_fract_x
 _atom_site_fract_y
 _atom_site_fract_z
 _atom_site_occupancy
  Li  Li0  1  0.24754200  0.53068400  0.18242400  1
  Li  Li1  1  0.74754200  0.03068400  0.31757600  1
  Li  Li2  1  0.24754200  0.96931600  0.68242400  1
  Li  Li3  1  0.74754200  0.46931600  0.81757600  1
  Mn  Mn4  1  0.18602900  0.02436600  0.11762600  1
  Mn  Mn5  1  0.68602900  0.52436600  0.38237400  1
  Mn  Mn6  1  0.18602900  0.47563400  0.61762600  1
  Mn  Mn7  1  0.68602900  0.97563400  0.88237400  1
  Si  Si8  1  0.76200900  0.73912100  0.09116600  1
  Si  Si9  1  0.26200900  0.23912100  0.40883400  1
  Si  Si10  1  0.76200900  0.76087900  0.59116600  1
  Si  Si11  1  0.26200900  0.26087900  0.90883400  1
  O  O12  1  0.21974800  0.29254200  0.07958400  1
  O  O13  1  0.07178900  0.76519100  0.13200000  1
  O  O14  1  0.62870100  0.57428000  0.18550600  1
  O  O15  1  0.63003000  0.95839500  0.09851200  1
  O  O16  1  0.13003000  0.45839500  0.40148800  1
  O  O17  1  0.12870100  0.07428000  0.31449400  1
  O  O18  1  0.57178900  0.26519100  0.36800000  1
  O  O19  1  0.71974800  0.79254200  0.42041600  1
  O  O20  1  0.21974800  0.20745800  0.57958400  1
  O  O21  1  0.07178900  0.73480900  0.63200000  1
  O  O22  1  0.62870100  0.92572000  0.68550600  1
  O  O23  1  0.63003000  0.54160500  0.59851200  1
  O  O24  1  0.13003000  0.04160500  0.90148800  1
  O  O25  1  0.12870100  0.42572000  0.81449400  1
  O  O26  1  0.57178900  0.23480900  0.86800000  1
  O  O27  1  0.71974800  0.70745800  0.92041600  1
