# generated using pymatgen
data_LiV2OF5
_symmetry_space_group_name_H-M   'P 1'
_cell_length_a   5.51764633
_cell_length_b   5.51764633
_cell_length_c   17.78833197
_cell_angle_alpha   77.39788504
_cell_angle_beta   77.39788504
_cell_angle_gamma   56.54257078
_symmetry_Int_Tables_number   1
_chemical_formula_structural   LiV2OF5
_chemical_formula_sum   'Li4 V8 O4 F20'
_cell_volume   437.73386756
_cell_formula_units_Z   4
loop_
 _symmetry_equiv_pos_site_id
 _symmetry_equiv_pos_as_xyz
  1  'x, y, z'
loop_
 _atom_site_type_symbol
 _atom_site_label
 _atom_site_symmetry_multiplicity
 _atom_site_fract_x
 _atom_site_fract_y
 _atom_site_fract_z
 _atom_site_occupancy
  Li  Li0  1  0.52569600  0.62928600  0.12074900  1
  Li  Li1  1  0.00935000  0.13815500  0.61563000  1
  Li  Li2  1  0.86184500  0.99065000  0.38437000  1
  Li  Li3  1  0.37071400  0.47430400  0.87925100  1
  V  V4  1  0.90274700  0.98146100  0.19014700  1
  V  V5  1  0.48398300  0.63656500  0.30504600  1
  V  V6  1  0.75506700  0.88870200  0.55992000  1
  V  V7  1  0.11129800  0.24493300  0.44008000  1
  V  V8  1  0.01853900  0.09725300  0.80985300  1
  V  V9  1  0.62963100  0.72352000  0.94068300  1
  V  V10  1  0.36343500  0.51601700  0.69495400  1
  V  V11  1  0.27648000  0.37036900  0.05931700  1
  O  O12  1  0.27629400  0.78006400  0.21997300  1
  O  O13  1  0.01660300  0.98339700  0.50000000  1
  O  O14  1  0.21993600  0.72370600  0.78002700  1
  O  O15  1  0.53985400  0.46014600  0.00000000  1
  F  F16  1  0.17427400  0.57359800  0.37815200  1
  F  F17  1  0.30733400  0.20087500  0.75271300  1
  F  F18  1  0.79912500  0.69266600  0.24728700  1
  F  F19  1  0.53308100  0.27467400  0.60195300  1
  F  F20  1  0.72532600  0.46691900  0.39804700  1
  F  F21  1  0.23568000  0.95573000  0.90355100  1
  F  F22  1  0.96243900  0.47192800  0.53628100  1
  F  F23  1  0.79413300  0.28444300  0.71337700  1
  F  F24  1  0.71555700  0.20586700  0.28662300  1
  F  F25  1  0.47853200  0.95273100  0.03733100  1
  F  F26  1  0.68361800  0.05720000  0.87591500  1
  F  F27  1  0.04427000  0.76432000  0.09644900  1
  F  F28  1  0.76460900  0.50024400  0.84728700  1
  F  F29  1  0.97393000  0.74452400  0.65288900  1
  F  F30  1  0.25547600  0.02607000  0.34711100  1
  F  F31  1  0.52807200  0.03756100  0.46371900  1
  F  F32  1  0.04726900  0.52146800  0.96266900  1
  F  F33  1  0.42640200  0.82572600  0.62184800  1
  F  F34  1  0.94280000  0.31638200  0.12408500  1
  F  F35  1  0.49975600  0.23539100  0.15271300  1
