# generated using pymatgen
data_LiFe(Si3O7)2
_symmetry_space_group_name_H-M   'P 1'
_cell_length_a   12.78056048
_cell_length_b   12.78056048
_cell_length_c   12.78056048
_cell_angle_alpha   146.31728480
_cell_angle_beta   107.34935266
_cell_angle_gamma   82.51199487
_symmetry_Int_Tables_number   1
_chemical_formula_structural   LiFe(Si3O7)2
_chemical_formula_sum   'Li4 Fe4 Si24 O56'
_cell_volume   1077.38340436
_cell_formula_units_Z   4
loop_
 _symmetry_equiv_pos_site_id
 _symmetry_equiv_pos_as_xyz
  1  'x, y, z'
loop_
 _atom_site_type_symbol
 _atom_site_label
 _atom_site_symmetry_multiplicity
 _atom_site_fract_x
 _atom_site_fract_y
 _atom_site_fract_z
 _atom_site_occupancy
  Li  Li0  1  0.25000000  0.25000000  0.00000000  1
  Li  Li1  1  0.75000000  0.75000000  0.00000000  1
  Li  Li2  1  0.50000000  0.00000000  0.50000000  1
  Li  Li3  1  0.00000000  0.50000000  0.50000000  1
  Fe  Fe4  1  0.45622100  0.25000000  0.20622100  1
  Fe  Fe5  1  0.95622100  0.75000000  0.20622100  1
  Fe  Fe6  1  0.04377900  0.25000000  0.79377900  1
  Fe  Fe7  1  0.54377900  0.75000000  0.79377900  1
  Si  Si8  1  0.37149800  0.68457900  0.05607700  1
  Si  Si9  1  0.12850200  0.18457900  0.31308100  1
  Si  Si10  1  0.83514900  0.23748200  0.07263200  1
  Si  Si11  1  0.22950500  0.41261000  0.33774600  1
  Si  Si12  1  0.27049500  0.60824100  0.18310500  1
  Si  Si13  1  0.57486400  0.91261000  0.18310500  1
  Si  Si14  1  0.92513600  0.10824100  0.33774600  1
  Si  Si15  1  0.33514900  0.26251800  0.59766700  1
  Si  Si16  1  0.72121700  0.18900600  0.21897500  1
  Si  Si17  1  0.02996900  0.49775800  0.21897500  1
  Si  Si18  1  0.47003100  0.68900600  0.46778900  1
  Si  Si19  1  0.77878300  0.99775800  0.46778900  1
  Si  Si20  1  0.97003100  0.50224200  0.78102500  1
  Si  Si21  1  0.52996900  0.31099400  0.53221100  1
  Si  Si22  1  0.22121700  0.00224200  0.53221100  1
  Si  Si23  1  0.27878300  0.81099400  0.78102500  1
  Si  Si24  1  0.66485100  0.73748200  0.40233300  1
  Si  Si25  1  0.77049500  0.58739000  0.66225400  1
  Si  Si26  1  0.07486400  0.89175900  0.66225400  1
  Si  Si27  1  0.72950500  0.39175900  0.81689500  1
  Si  Si28  1  0.42513600  0.08739000  0.81689500  1
  Si  Si29  1  0.16485100  0.76251800  0.92736800  1
  Si  Si30  1  0.87149800  0.81542100  0.68691900  1
  Si  Si31  1  0.62850200  0.31542100  0.94392300  1
  O  O32  1  0.49346700  0.82805000  0.18949700  1
  O  O33  1  0.36144700  0.69603000  0.18949700  1
  O  O34  1  0.27200200  0.76627900  0.03828100  1
  O  O35  1  0.80136400  0.60647400  0.03889400  1
  O  O36  1  0.43242000  0.23753000  0.03889400  1
  O  O37  1  0.12821700  0.96729800  0.09551500  1
  O  O38  1  0.93242000  0.89352600  0.19488900  1
  O  O39  1  0.30136400  0.26247000  0.19488900  1
  O  O40  1  0.44237500  0.22526000  0.53233000  1
  O  O41  1  0.30707100  0.08995600  0.53233000  1
  O  O42  1  0.48919800  0.44972600  0.55163500  1
  O  O43  1  0.10190900  0.06243600  0.55163500  1
  O  O44  1  0.00653300  0.19603000  0.33458300  1
  O  O45  1  0.13855300  0.32805000  0.33458300  1
  O  O46  1  0.22799800  0.26627900  0.49427600  1
  O  O47  1  0.60190900  0.05027400  0.03947300  1
  O  O48  1  0.98919800  0.43756400  0.03947300  1
  O  O49  1  0.79652400  0.09668200  0.24841400  1
  O  O50  1  0.70347600  0.95189000  0.30015800  1
  O  O51  1  0.15173200  0.45189000  0.24841400  1
  O  O52  1  0.34826800  0.59668200  0.30015800  1
  O  O53  1  0.80707100  0.27474000  0.21711500  1
  O  O54  1  0.94237500  0.41004400  0.21711500  1
  O  O55  1  0.19279000  0.76627200  0.30854900  1
  O  O56  1  0.54227600  0.11575900  0.30854900  1
  O  O57  1  0.30721000  0.61575900  0.57348300  1
  O  O58  1  0.95772400  0.26627200  0.57348300  1
  O  O59  1  0.37178300  0.46729800  0.83908000  1
  O  O60  1  0.62821700  0.53270200  0.16092000  1
  O  O61  1  0.04227600  0.73372800  0.42651700  1
  O  O62  1  0.45772400  0.88424100  0.69145100  1
  O  O63  1  0.69279000  0.38424100  0.42651700  1
  O  O64  1  0.80721000  0.23372800  0.69145100  1
  O  O65  1  0.05762500  0.58995600  0.78288500  1
  O  O66  1  0.19292900  0.72526000  0.78288500  1
  O  O67  1  0.84826800  0.54811000  0.75158600  1
  O  O68  1  0.65173200  0.40331800  0.69984200  1
  O  O69  1  0.29652400  0.04811000  0.69984200  1
  O  O70  1  0.20347600  0.90331800  0.75158600  1
  O  O71  1  0.01080200  0.56243600  0.96052700  1
  O  O72  1  0.39809100  0.94972600  0.96052700  1
  O  O73  1  0.77200200  0.73372100  0.50572400  1
  O  O74  1  0.86144700  0.67195000  0.66541700  1
  O  O75  1  0.99346700  0.80397000  0.66541700  1
  O  O76  1  0.51080200  0.55027400  0.44836600  1
  O  O77  1  0.89809100  0.93756400  0.44836600  1
  O  O78  1  0.69292900  0.91004400  0.46767000  1
  O  O79  1  0.55762500  0.77474000  0.46767000  1
  O  O80  1  0.69863600  0.73753000  0.80511100  1
  O  O81  1  0.06758000  0.10647400  0.80511100  1
  O  O82  1  0.87178300  0.03270200  0.90448500  1
  O  O83  1  0.56758000  0.76247000  0.96110600  1
  O  O84  1  0.19863600  0.39352600  0.96110600  1
  O  O85  1  0.72799800  0.23372100  0.96171900  1
  O  O86  1  0.50653300  0.17195000  0.81050300  1
  O  O87  1  0.63855300  0.30397000  0.81050300  1
