# generated using pymatgen
data_LiSn2(PO4)3
_symmetry_space_group_name_H-M   'P 1'
_cell_length_a   8.75696400
_cell_length_b   8.88012600
_cell_length_c   12.34847800
_cell_angle_alpha   90.00000000
_cell_angle_beta   90.00000000
_cell_angle_gamma   90.00000000
_symmetry_Int_Tables_number   1
_chemical_formula_structural   LiSn2(PO4)3
_chemical_formula_sum   'Li4 Sn8 P12 O48'
_cell_volume   960.25399946
_cell_formula_units_Z   4
loop_
 _symmetry_equiv_pos_site_id
 _symmetry_equiv_pos_as_xyz
  1  'x, y, z'
loop_
 _atom_site_type_symbol
 _atom_site_label
 _atom_site_symmetry_multiplicity
 _atom_site_fract_x
 _atom_site_fract_y
 _atom_site_fract_z
 _atom_site_occupancy
  Li  Li0  1  0.03838900  0.96899500  0.67745300  1
  Li  Li1  1  0.03838900  0.03100500  0.32254700  1
  Li  Li2  1  0.96161100  0.46899500  0.82254700  1
  Li  Li3  1  0.96161100  0.53100500  0.17745300  1
  Sn  Sn4  1  0.49940800  0.71481000  0.11805200  1
  Sn  Sn5  1  0.49940800  0.28519000  0.88194800  1
  Sn  Sn6  1  0.50059200  0.78519000  0.61805200  1
  Sn  Sn7  1  0.50059200  0.21481000  0.38194800  1
  Sn  Sn8  1  0.00053600  0.29077100  0.61264400  1
  Sn  Sn9  1  0.00053600  0.70922900  0.38735600  1
  Sn  Sn10  1  0.99946400  0.79077100  0.88735600  1
  Sn  Sn11  1  0.99946400  0.20922900  0.11264400  1
  P  P12  1  0.70803600  0.50000000  0.50000000  1
  P  P13  1  0.64312300  0.64145800  0.85264000  1
  P  P14  1  0.64312300  0.35854200  0.14736000  1
  P  P15  1  0.35687700  0.14145800  0.64736000  1
  P  P16  1  0.35687700  0.85854200  0.35264000  1
  P  P17  1  0.29196400  0.00000000  0.00000000  1
  P  P18  1  0.20994200  0.50000000  0.00000000  1
  P  P19  1  0.14665900  0.64363300  0.65047600  1
  P  P20  1  0.14665900  0.35636700  0.34952400  1
  P  P21  1  0.85334100  0.14363300  0.84952400  1
  P  P22  1  0.85334100  0.85636700  0.15047600  1
  P  P23  1  0.79005800  0.00000000  0.50000000  1
  O  O24  1  0.69787500  0.89456000  0.57167000  1
  O  O25  1  0.69787500  0.10544000  0.42833000  1
  O  O26  1  0.68022200  0.14660700  0.84065500  1
  O  O27  1  0.68022200  0.85339300  0.15934500  1
  O  O28  1  0.60881100  0.59292500  0.57645400  1
  O  O29  1  0.60881100  0.40707500  0.42354600  1
  O  O30  1  0.60042000  0.47778600  0.82315200  1
  O  O31  1  0.60042000  0.52221400  0.17684800  1
  O  O32  1  0.59538500  0.68406800  0.96758600  1
  O  O33  1  0.59538500  0.31593200  0.03241400  1
  O  O34  1  0.57880300  0.75788700  0.77311300  1
  O  O35  1  0.57880300  0.24211300  0.22688700  1
  O  O36  1  0.42119700  0.25788700  0.72688700  1
  O  O37  1  0.42119700  0.74211300  0.27311300  1
  O  O38  1  0.40461500  0.18406800  0.53241400  1
  O  O39  1  0.40461500  0.81593200  0.46758600  1
  O  O40  1  0.39958000  0.02221400  0.32315200  1
  O  O41  1  0.39958000  0.97778600  0.67684800  1
  O  O42  1  0.39118900  0.09292500  0.92354600  1
  O  O43  1  0.39118900  0.90707500  0.07645400  1
  O  O44  1  0.31977800  0.64660700  0.65934500  1
  O  O45  1  0.31977800  0.35339300  0.34065500  1
  O  O46  1  0.30212500  0.39456000  0.92833000  1
  O  O47  1  0.30212500  0.60544000  0.07167000  1
  O  O48  1  0.19303300  0.10171200  0.07408800  1
  O  O49  1  0.19303300  0.89828800  0.92591200  1
  O  O50  1  0.17598000  0.14451800  0.65527500  1
  O  O51  1  0.17598000  0.85548200  0.34472500  1
  O  O52  1  0.09967700  0.58516000  0.92113500  1
  O  O53  1  0.09967700  0.41484000  0.07886500  1
  O  O54  1  0.08752000  0.48515100  0.68583500  1
  O  O55  1  0.08752000  0.51484900  0.31416500  1
  O  O56  1  0.09228100  0.68300800  0.53606200  1
  O  O57  1  0.09228100  0.31699200  0.46393800  1
  O  O58  1  0.07302400  0.76440900  0.72651900  1
  O  O59  1  0.07302400  0.23559100  0.27348100  1
  O  O60  1  0.92697600  0.26440900  0.77348100  1
  O  O61  1  0.92697600  0.73559100  0.22651900  1
  O  O62  1  0.90771900  0.18300800  0.96393800  1
  O  O63  1  0.90771900  0.81699200  0.03606200  1
  O  O64  1  0.91248000  0.98515100  0.81416500  1
  O  O65  1  0.91248000  0.01484900  0.18583500  1
  O  O66  1  0.90032300  0.08516000  0.57886500  1
  O  O67  1  0.90032300  0.91484000  0.42113500  1
  O  O68  1  0.82402000  0.64451800  0.84472500  1
  O  O69  1  0.82402000  0.35548200  0.15527500  1
  O  O70  1  0.80696700  0.39828800  0.57408800  1
  O  O71  1  0.80696700  0.60171200  0.42591200  1
