# generated using pymatgen
data_Li2MnP2O7
_symmetry_space_group_name_H-M   'P 1'
_cell_length_a   7.83363800
_cell_length_b   7.83429600
_cell_length_c   10.24183700
_cell_angle_alpha   90.00072371
_cell_angle_beta   89.99986704
_cell_angle_gamma   90.00073138
_symmetry_Int_Tables_number   1
_chemical_formula_structural   Li2MnP2O7
_chemical_formula_sum   'Li8 Mn4 P8 O28'
_cell_volume   628.55217636
_cell_formula_units_Z   4
loop_
 _symmetry_equiv_pos_site_id
 _symmetry_equiv_pos_as_xyz
  1  'x, y, z'
loop_
 _atom_site_type_symbol
 _atom_site_label
 _atom_site_symmetry_multiplicity
 _atom_site_fract_x
 _atom_site_fract_y
 _atom_site_fract_z
 _atom_site_occupancy
  Li  Li0  1  0.22625400  0.72624700  0.27328200  1
  Li  Li1  1  0.22628000  0.72627000  0.77329200  1
  Li  Li2  1  0.27373400  0.22625800  0.22670500  1
  Li  Li3  1  0.27373900  0.22627000  0.72670100  1
  Li  Li4  1  0.72627400  0.77373800  0.22670400  1
  Li  Li5  1  0.72626700  0.77372800  0.72670200  1
  Li  Li6  1  0.77373600  0.27372800  0.27328900  1
  Li  Li7  1  0.77374600  0.27374700  0.77328500  1
  Mn  Mn8  1  0.99998100  0.00003100  0.50005300  1
  Mn  Mn9  1  0.49993800  0.49999900  0.00002700  1
  Mn  Mn10  1  0.99998000  0.00000300  0.99999200  1
  Mn  Mn11  1  0.49995900  0.50004600  0.50007200  1
  P  P12  1  0.14061900  0.35938600  0.44419100  1
  P  P13  1  0.14062400  0.35938200  0.94420000  1
  P  P14  1  0.35938000  0.85939500  0.05580200  1
  P  P15  1  0.35938000  0.85938500  0.55578400  1
  P  P16  1  0.64061900  0.14060800  0.05579600  1
  P  P17  1  0.64061800  0.14061900  0.55579000  1
  P  P18  1  0.85938500  0.64061100  0.44419100  1
  P  P19  1  0.85937600  0.64061400  0.94420000  1
  O  O20  1  0.00000600  0.49999500  0.40258600  1
  O  O21  1  0.00000500  0.49999800  0.90259000  1
  O  O22  1  0.50001300  0.00000400  0.09740700  1
  O  O23  1  0.49999500  0.99998400  0.59740300  1
  O  O24  1  0.15636600  0.34364500  0.09026400  1
  O  O25  1  0.15635000  0.34364800  0.59026900  1
  O  O26  1  0.34366000  0.84364100  0.40972000  1
  O  O27  1  0.34364900  0.84365300  0.90972800  1
  O  O28  1  0.65636200  0.15635400  0.40972900  1
  O  O29  1  0.65635700  0.15634500  0.90972300  1
  O  O30  1  0.84365300  0.65635500  0.09026500  1
  O  O31  1  0.84365100  0.65633700  0.59026900  1
  O  O32  1  0.07827800  0.19587100  0.37380900  1
  O  O33  1  0.07827200  0.19586200  0.87382200  1
  O  O34  1  0.19584600  0.92173800  0.12617600  1
  O  O35  1  0.19584000  0.92173100  0.62615400  1
  O  O36  1  0.30415800  0.42173200  0.37381300  1
  O  O37  1  0.30417300  0.42173300  0.87384300  1
  O  O38  1  0.42172200  0.69588600  0.12619600  1
  O  O39  1  0.42173500  0.69586400  0.62617400  1
  O  O40  1  0.57828000  0.30410900  0.12619300  1
  O  O41  1  0.57826700  0.30414000  0.62616600  1
  O  O42  1  0.69585800  0.57825800  0.37381400  1
  O  O43  1  0.69581900  0.57825400  0.87384900  1
  O  O44  1  0.80415400  0.07826300  0.12617800  1
  O  O45  1  0.80415900  0.07826900  0.62616200  1
  O  O46  1  0.92173500  0.80413900  0.37381700  1
  O  O47  1  0.92174500  0.80412400  0.87382300  1
