# generated using pymatgen
data_LiV2(PO4)3
_symmetry_space_group_name_H-M   'P 1'
_cell_length_a   8.87455755
_cell_length_b   8.34909651
_cell_length_c   8.33888175
_cell_angle_alpha   119.90199785
_cell_angle_beta   89.74414940
_cell_angle_gamma   62.36031792
_symmetry_Int_Tables_number   1
_chemical_formula_structural   LiV2(PO4)3
_chemical_formula_sum   'Li2 V4 P6 O24'
_cell_volume   451.58420781
_cell_formula_units_Z   2
loop_
 _symmetry_equiv_pos_site_id
 _symmetry_equiv_pos_as_xyz
  1  'x, y, z'
loop_
 _atom_site_type_symbol
 _atom_site_label
 _atom_site_symmetry_multiplicity
 _atom_site_fract_x
 _atom_site_fract_y
 _atom_site_fract_z
 _atom_site_occupancy
  Li  Li0  1  0.13824700  0.94046500  0.25991200  1
  Li  Li1  1  0.86175300  0.05953500  0.74008800  1
  V  V2  1  0.05729500  0.30320200  0.65535600  1
  V  V3  1  0.57062400  0.28237800  0.14695300  1
  V  V4  1  0.42937600  0.71762200  0.85304700  1
  V  V5  1  0.94270500  0.69679800  0.34464400  1
  P  P6  1  0.24823000  0.21884000  0.25257500  1
  P  P7  1  0.25453900  0.49856300  0.96733900  1
  P  P8  1  0.24889900  0.78500600  0.53532500  1
  P  P9  1  0.75110100  0.21499400  0.46467500  1
  P  P10  1  0.74546100  0.50143700  0.03266100  1
  P  P11  1  0.75177000  0.78116000  0.74742500  1
  O  O12  1  0.10584700  0.38917600  0.22080500  1
  O  O13  1  0.19704100  0.29032600  0.46477500  1
  O  O14  1  0.19921800  0.34469900  0.82218000  1
  O  O15  1  0.10239900  0.68657800  0.16734900  1
  O  O16  1  0.08309900  0.76253700  0.53048800  1
  O  O17  1  0.42895700  0.19207500  0.20114900  1
  O  O18  1  0.27934100  0.62301300  0.89298100  1
  O  O19  1  0.42799600  0.36203100  0.99208200  1
  O  O20  1  0.20553100  0.97436200  0.51119100  1
  O  O21  1  0.27119900  0.84518300  0.73664600  1
  O  O22  1  0.41970700  0.57726200  0.37601700  1
  O  O23  1  0.26270200  0.99887400  0.11648400  1
  O  O24  1  0.73729800  0.00112600  0.88351600  1
  O  O25  1  0.58029300  0.42273800  0.62398300  1
  O  O26  1  0.72880100  0.15481700  0.26335400  1
  O  O27  1  0.79446900  0.02563800  0.48880900  1
  O  O28  1  0.57200400  0.63796900  0.00791800  1
  O  O29  1  0.72065900  0.37698700  0.10701900  1
  O  O30  1  0.57104300  0.80792500  0.79885100  1
  O  O31  1  0.91690100  0.23746300  0.46951200  1
  O  O32  1  0.89760100  0.31342200  0.83265100  1
  O  O33  1  0.80078200  0.65530100  0.17781900  1
  O  O34  1  0.80296000  0.70967400  0.53522500  1
  O  O35  1  0.89415300  0.61082400  0.77919500  1
