# generated using pymatgen
data_LiMnPO4
_symmetry_space_group_name_H-M   'P 1'
_cell_length_a   7.77550711
_cell_length_b   7.77550711
_cell_length_c   9.87430300
_cell_angle_alpha   90.00000000
_cell_angle_beta   90.00000000
_cell_angle_gamma   120.00000941
_symmetry_Int_Tables_number   1
_chemical_formula_structural   LiMnPO4
_chemical_formula_sum   'Li6 Mn6 P6 O24'
_cell_volume   517.00469311
_cell_formula_units_Z   6
loop_
 _symmetry_equiv_pos_site_id
 _symmetry_equiv_pos_as_xyz
  1  'x, y, z'
loop_
 _atom_site_type_symbol
 _atom_site_label
 _atom_site_symmetry_multiplicity
 _atom_site_fract_x
 _atom_site_fract_y
 _atom_site_fract_z
 _atom_site_occupancy
  Li  Li0  1  0.03414900  0.59162600  0.49063400  1
  Li  Li1  1  0.55747600  0.96585100  0.49063400  1
  Li  Li2  1  0.40837400  0.44252400  0.49063400  1
  Li  Li3  1  0.44252400  0.40837400  0.99063400  1
  Li  Li4  1  0.59162600  0.03414900  0.99063400  1
  Li  Li5  1  0.96585100  0.55747600  0.99063400  1
  Mn  Mn6  1  0.23241200  0.94716700  0.26778400  1
  Mn  Mn7  1  0.05283300  0.28524500  0.26778400  1
  Mn  Mn8  1  0.28524500  0.05283300  0.76778400  1
  Mn  Mn9  1  0.71475500  0.76758800  0.26778400  1
  Mn  Mn10  1  0.76758800  0.71475500  0.76778400  1
  Mn  Mn11  1  0.94716700  0.23241200  0.76778400  1
  P  P12  1  0.33333300  0.66666700  0.17638700  1
  P  P13  1  0.00000000  0.00000000  0.00241500  1
  P  P14  1  0.00000000  0.00000000  0.50241500  1
  P  P15  1  0.33333300  0.66666700  0.77421500  1
  P  P16  1  0.66666700  0.33333300  0.67638700  1
  P  P17  1  0.66666700  0.33333300  0.27421500  1
  O  O18  1  0.07910600  0.86466500  0.45088900  1
  O  O19  1  0.18607200  0.73295200  0.12491400  1
  O  O20  1  0.39164800  0.87640300  0.83182200  1
  O  O21  1  0.12359700  0.51524500  0.83182200  1
  O  O22  1  0.26704800  0.45312000  0.12491400  1
  O  O23  1  0.33333300  0.66666700  0.33401600  1
  O  O24  1  0.00000000  0.00000000  0.16411900  1
  O  O25  1  0.00000000  0.00000000  0.66411900  1
  O  O26  1  0.33333300  0.66666700  0.61775500  1
  O  O27  1  0.13533500  0.21444200  0.45088900  1
  O  O28  1  0.21444200  0.13533500  0.95088900  1
  O  O29  1  0.54688000  0.81392800  0.12491400  1
  O  O30  1  0.48475500  0.60835200  0.83182200  1
  O  O31  1  0.78555800  0.92089400  0.45088900  1
  O  O32  1  0.45312000  0.26704800  0.62491400  1
  O  O33  1  0.51524500  0.12359700  0.33182200  1
  O  O34  1  0.60835200  0.48475500  0.33182200  1
  O  O35  1  0.81392800  0.54688000  0.62491400  1
  O  O36  1  0.66666700  0.33333300  0.83401600  1
  O  O37  1  0.66666700  0.33333300  0.11775500  1
  O  O38  1  0.92089400  0.78555800  0.95088900  1
  O  O39  1  0.73295200  0.18607200  0.62491400  1
  O  O40  1  0.87640300  0.39164800  0.33182200  1
  O  O41  1  0.86466500  0.07910600  0.95088900  1
