# generated using pymatgen
data_LiMnPO4
_symmetry_space_group_name_H-M   'P 1'
_cell_length_a   5.24614100
_cell_length_b   8.49945600
_cell_length_c   8.81843273
_cell_angle_alpha   71.11932388
_cell_angle_beta   90.00000000
_cell_angle_gamma   90.00000000
_symmetry_Int_Tables_number   1
_chemical_formula_structural   LiMnPO4
_chemical_formula_sum   'Li4 Mn4 P4 O16'
_cell_volume   372.05139564
_cell_formula_units_Z   4
loop_
 _symmetry_equiv_pos_site_id
 _symmetry_equiv_pos_as_xyz
  1  'x, y, z'
loop_
 _atom_site_type_symbol
 _atom_site_label
 _atom_site_symmetry_multiplicity
 _atom_site_fract_x
 _atom_site_fract_y
 _atom_site_fract_z
 _atom_site_occupancy
  Li  Li0  1  0.82692500  0.10387300  0.01793800  1
  Li  Li1  1  0.31563200  0.25735800  0.49879500  1
  Li  Li2  1  0.17307500  0.60387300  0.01793800  1
  Li  Li3  1  0.68436800  0.75735800  0.49879500  1
  Mn  Mn4  1  0.67656700  0.99626200  0.74550300  1
  Mn  Mn5  1  0.81905200  0.33046100  0.26773900  1
  Mn  Mn6  1  0.32343300  0.49626200  0.74550300  1
  Mn  Mn7  1  0.18094800  0.83046100  0.26773900  1
  P  P8  1  0.31539800  0.22610400  0.13537000  1
  P  P9  1  0.81895500  0.36750200  0.63021100  1
  P  P10  1  0.68460200  0.72610400  0.13537000  1
  P  P11  1  0.18104500  0.86750200  0.63021100  1
  O  O12  1  0.17494400  0.07428100  0.11305700  1
  O  O13  1  0.31263500  0.02479300  0.64680300  1
  O  O14  1  0.60550500  0.18871700  0.16107400  1
  O  O15  1  0.20464700  0.26404600  0.28477600  1
  O  O16  1  0.77981600  0.21910300  0.78664100  1
  O  O17  1  0.69009000  0.31576200  0.49324500  1
  O  O18  1  0.82505600  0.57428100  0.11305700  1
  O  O19  1  0.10699400  0.40378700  0.59246600  1
  O  O20  1  0.26572500  0.38175100  0.98758300  1
  O  O21  1  0.68736500  0.52479300  0.64680300  1
  O  O22  1  0.39449500  0.68871700  0.16107400  1
  O  O23  1  0.79535300  0.76404600  0.28477600  1
  O  O24  1  0.22018400  0.71910300  0.78664100  1
  O  O25  1  0.30991000  0.81576200  0.49324500  1
  O  O26  1  0.89300600  0.90378700  0.59246600  1
  O  O27  1  0.73427500  0.88175100  0.98758300  1
