# generated using pymatgen
data_Li3Fe2(PO4)3
_symmetry_space_group_name_H-M   'P 1'
_cell_length_a   8.48920184
_cell_length_b   8.99193050
_cell_length_c   8.51172117
_cell_angle_alpha   89.64086386
_cell_angle_beta   60.03625106
_cell_angle_gamma   118.24176729
_symmetry_Int_Tables_number   1
_chemical_formula_structural   Li3Fe2(PO4)3
_chemical_formula_sum   'Li6 Fe4 P6 O24'
_cell_volume   470.16587546
_cell_formula_units_Z   2
loop_
 _symmetry_equiv_pos_site_id
 _symmetry_equiv_pos_as_xyz
  1  'x, y, z'
loop_
 _atom_site_type_symbol
 _atom_site_label
 _atom_site_symmetry_multiplicity
 _atom_site_fract_x
 _atom_site_fract_y
 _atom_site_fract_z
 _atom_site_occupancy
  Li  Li0  1  0.17039178  0.33520508  0.59449456  1
  Li  Li1  1  0.56814666  0.31588199  0.83917033  1
  Li  Li2  1  0.80935213  0.14493152  0.27435062  1
  Li  Li3  1  0.19064787  0.85506848  0.72564938  1
  Li  Li4  1  0.43185334  0.68411801  0.16082967  1
  Li  Li5  1  0.82960822  0.66479492  0.40550544  1
  Fe  Fe6  1  0.69544174  0.04111251  0.65781104  1
  Fe  Fe7  1  0.71224997  0.56758925  0.13724297  1
  Fe  Fe8  1  0.28775003  0.43241075  0.86275703  1
  Fe  Fe9  1  0.30455826  0.95888749  0.34218896  1
  P  P10  1  0.78388307  0.24727398  0.96830939  1
  P  P11  1  0.78972002  0.74423266  0.74620959  1
  P  P12  1  0.49833113  0.24671556  0.54343692  1
  P  P13  1  0.50166887  0.75328444  0.45656308  1
  P  P14  1  0.21027998  0.25576734  0.25379041  1
  P  P15  1  0.21611693  0.75272602  0.03169061  1
  O  O16  1  0.70782038  0.19195488  0.83378109  1
  O  O17  1  0.87180372  0.74007932  0.87158885  1
  O  O18  1  0.97102677  0.79870247  0.53070026  1
  O  O19  1  0.67649578  0.21707786  0.51308304  1
  O  O20  1  0.59783372  0.55349001  0.79631941  1
  O  O21  1  0.98681705  0.71836941  0.12917625  1
  O  O22  1  0.70981770  0.87109165  0.78830981  1
  O  O23  1  0.63459182  0.10287123  0.16614531  1
  O  O24  1  0.38215900  0.26497927  0.74449600  1
  O  O25  1  0.78768429  0.41797798  0.99368685  1
  O  O26  1  0.60714826  0.42164386  0.39190649  1
  O  O27  1  0.32118162  0.08472416  0.53545848  1
  O  O28  1  0.67881838  0.91527584  0.46454152  1
  O  O29  1  0.39285174  0.57835614  0.60809351  1
  O  O30  1  0.21231571  0.58202202  0.00631315  1
  O  O31  1  0.61784100  0.73502073  0.25550400  1
  O  O32  1  0.36540818  0.89712877  0.83385469  1
  O  O33  1  0.29018230  0.12890835  0.21169019  1
  O  O34  1  0.01318295  0.28163059  0.87082375  1
  O  O35  1  0.40216628  0.44650999  0.20368059  1
  O  O36  1  0.32350422  0.78292214  0.48691696  1
  O  O37  1  0.02897323  0.20129753  0.46929974  1
  O  O38  1  0.12819628  0.25992068  0.12841115  1
  O  O39  1  0.29217962  0.80804512  0.16621891  1
