# generated using pymatgen
data_Li3CoO3
_symmetry_space_group_name_H-M   'P 1'
_cell_length_a   8.73879700
_cell_length_b   8.73879700
_cell_length_c   3.62356600
_cell_angle_alpha   90.00000000
_cell_angle_beta   90.00000000
_cell_angle_gamma   90.00000000
_symmetry_Int_Tables_number   1
_chemical_formula_structural   Li3CoO3
_chemical_formula_sum   'Li12 Co4 O12'
_cell_volume   276.71931749
_cell_formula_units_Z   4
loop_
 _symmetry_equiv_pos_site_id
 _symmetry_equiv_pos_as_xyz
  1  'x, y, z'
loop_
 _atom_site_type_symbol
 _atom_site_label
 _atom_site_symmetry_multiplicity
 _atom_site_fract_x
 _atom_site_fract_y
 _atom_site_fract_z
 _atom_site_occupancy
  Li  Li0  1  0.35726600  0.10402800  0.50000000  1
  Li  Li1  1  0.60402800  0.14273400  0.00000000  1
  Li  Li2  1  0.16482200  0.16482200  0.00000000  1
  Li  Li3  1  0.66482200  0.33517800  0.50000000  1
  Li  Li4  1  0.10402800  0.35726600  0.50000000  1
  Li  Li5  1  0.85726600  0.39597200  0.00000000  1
  Li  Li6  1  0.14273400  0.60402800  0.00000000  1
  Li  Li7  1  0.89597200  0.64273400  0.50000000  1
  Li  Li8  1  0.33517800  0.66482200  0.50000000  1
  Li  Li9  1  0.83517800  0.83517800  0.00000000  1
  Li  Li10  1  0.39597200  0.85726600  0.00000000  1
  Li  Li11  1  0.64273400  0.89597200  0.50000000  1
  Co  Co12  1  0.88469900  0.11530100  0.50000000  1
  Co  Co13  1  0.38469900  0.38469900  0.00000000  1
  Co  Co14  1  0.61530100  0.61530100  0.00000000  1
  Co  Co15  1  0.11530100  0.88469900  0.50000000  1
  O  O16  1  0.09928700  0.09928700  0.50000000  1
  O  O17  1  0.67866800  0.11132100  0.50000000  1
  O  O18  1  0.38867900  0.17866800  0.00000000  1
  O  O19  1  0.88867900  0.32133200  0.50000000  1
  O  O20  1  0.17866800  0.38867900  0.00000000  1
  O  O21  1  0.59928700  0.40071300  0.00000000  1
  O  O22  1  0.40071300  0.59928700  0.00000000  1
  O  O23  1  0.82133200  0.61132100  0.00000000  1
  O  O24  1  0.11132100  0.67866800  0.50000000  1
  O  O25  1  0.61132100  0.82133200  0.00000000  1
  O  O26  1  0.32133200  0.88867900  0.50000000  1
  O  O27  1  0.90071300  0.90071300  0.50000000  1
