# generated using pymatgen
data_Li2VF6
_symmetry_space_group_name_H-M   'P 1'
_cell_length_a   5.02133500
_cell_length_b   5.12966600
_cell_length_c   15.08974918
_cell_angle_alpha   83.61255973
_cell_angle_beta   90.00000000
_cell_angle_gamma   90.00000000
_symmetry_Int_Tables_number   1
_chemical_formula_structural   Li2VF6
_chemical_formula_sum   'Li8 V4 F24'
_cell_volume   386.26552362
_cell_formula_units_Z   4
loop_
 _symmetry_equiv_pos_site_id
 _symmetry_equiv_pos_as_xyz
  1  'x, y, z'
loop_
 _atom_site_type_symbol
 _atom_site_label
 _atom_site_symmetry_multiplicity
 _atom_site_fract_x
 _atom_site_fract_y
 _atom_site_fract_z
 _atom_site_occupancy
  Li  Li0  1  0.48886000  0.74433600  0.75117500  1
  Li  Li1  1  0.97867500  0.67852300  0.91239700  1
  Li  Li2  1  0.01114000  0.74433600  0.25117500  1
  Li  Li3  1  0.52132500  0.67852300  0.41239700  1
  Li  Li4  1  0.47867500  0.32147700  0.58760300  1
  Li  Li5  1  0.98886000  0.25566400  0.74882500  1
  Li  Li6  1  0.02132500  0.32147700  0.08760300  1
  Li  Li7  1  0.51114000  0.25566400  0.24882500  1
  V  V8  1  0.93868400  0.82651700  0.59979500  1
  V  V9  1  0.56131600  0.82651700  0.09979500  1
  V  V10  1  0.43868400  0.17348300  0.90020500  1
  V  V11  1  0.06131600  0.17348300  0.40020500  1
  F  F12  1  0.17654100  0.98077500  0.83983000  1
  F  F13  1  0.66156200  0.92673900  0.84732500  1
  F  F14  1  0.32255200  0.86962100  0.98837100  1
  F  F15  1  0.32345900  0.98077500  0.33983000  1
  F  F16  1  0.83843800  0.92673900  0.34732500  1
  F  F17  1  0.17744800  0.86962100  0.48837100  1
  F  F18  1  0.70505300  0.63985700  0.53212400  1
  F  F19  1  0.21968800  0.59937300  0.62770800  1
  F  F20  1  0.78960200  0.56727900  0.69537200  1
  F  F21  1  0.28960200  0.43272100  0.80462800  1
  F  F22  1  0.71968800  0.40062700  0.87229200  1
  F  F23  1  0.20505300  0.36014300  0.96787600  1
  F  F24  1  0.79494700  0.63985700  0.03212400  1
  F  F25  1  0.28031200  0.59937300  0.12770800  1
  F  F26  1  0.71039800  0.56727900  0.19537200  1
  F  F27  1  0.21039800  0.43272100  0.30462800  1
  F  F28  1  0.78031200  0.40062700  0.37229200  1
  F  F29  1  0.29494700  0.36014300  0.46787600  1
  F  F30  1  0.82255200  0.13037900  0.51162900  1
  F  F31  1  0.16156200  0.07326100  0.65267500  1
  F  F32  1  0.67654100  0.01922500  0.66017000  1
  F  F33  1  0.67744800  0.13037900  0.01162900  1
  F  F34  1  0.33843800  0.07326100  0.15267500  1
  F  F35  1  0.82345900  0.01922500  0.16017000  1
