# generated using pymatgen
data_LiMn2(BO3)2
_symmetry_space_group_name_H-M   'P 1'
_cell_length_a   5.30157000
_cell_length_b   5.79413675
_cell_length_c   22.20928661
_cell_angle_alpha   89.58241870
_cell_angle_beta   89.49115123
_cell_angle_gamma   66.26554963
_symmetry_Int_Tables_number   1
_chemical_formula_structural   LiMn2(BO3)2
_chemical_formula_sum   'Li5 Mn10 B10 O30'
_cell_volume   624.49346800
_cell_formula_units_Z   5
loop_
 _symmetry_equiv_pos_site_id
 _symmetry_equiv_pos_as_xyz
  1  'x, y, z'
loop_
 _atom_site_type_symbol
 _atom_site_label
 _atom_site_symmetry_multiplicity
 _atom_site_fract_x
 _atom_site_fract_y
 _atom_site_fract_z
 _atom_site_occupancy
  Li  Li0  1  0.38553100  0.05161600  0.38889300  1
  Li  Li1  1  0.02660300  0.14367400  0.81334300  1
  Li  Li2  1  0.78329100  0.25396700  0.58843500  1
  Li  Li3  1  0.98470800  0.85208300  0.18932400  1
  Li  Li4  1  0.57988800  0.65383700  0.98913300  1
  Mn  Mn5  1  0.52256500  0.13643800  0.88123100  1
  Mn  Mn6  1  0.27640200  0.26523100  0.52239300  1
  Mn  Mn7  1  0.87737900  0.06759400  0.32359800  1
  Mn  Mn8  1  0.33157800  0.52388000  0.27906600  1
  Mn  Mn9  1  0.93007900  0.32274000  0.07758000  1
  Mn  Mn10  1  0.07559900  0.67094800  0.92176900  1
  Mn  Mn11  1  0.66587600  0.47823700  0.72611600  1
  Mn  Mn12  1  0.12385800  0.92609000  0.67798400  1
  Mn  Mn13  1  0.73029600  0.72346900  0.47893600  1
  Mn  Mn14  1  0.47670500  0.86715900  0.12338500  1
  B  B15  1  0.57682800  0.00213700  0.75022400  1
  B  B16  1  0.22670100  0.39350300  0.65132100  1
  B  B17  1  0.82184900  0.19767400  0.45245900  1
  B  B18  1  0.37765200  0.40326900  0.14565700  1
  B  B19  1  0.97197700  0.20682200  0.94464200  1
  B  B20  1  0.02159700  0.80022200  0.05273000  1
  B  B21  1  0.62710600  0.59848900  0.85642900  1
  B  B22  1  0.17590300  0.80306500  0.54563100  1
  B  B23  1  0.77835800  0.60341400  0.34596100  1
  B  B24  1  0.42293800  0.99784200  0.25276600  1
  O  O25  1  0.00042500  0.13013300  0.40401400  1
  O  O26  1  0.40439900  0.06781200  0.79825000  1
  O  O27  1  0.48039600  0.12273600  0.30160600  1
  O  O28  1  0.00301300  0.32758600  0.65947800  1
  O  O29  1  0.59546200  0.13575900  0.45646200  1
  O  O30  1  0.16903000  0.30378700  0.93259100  1
  O  O31  1  0.78270000  0.09860600  0.74119200  1
  O  O32  1  0.35161000  0.22643600  0.10537200  1
  O  O33  1  0.95310600  0.04032700  0.89932400  1
  O  O34  1  0.40067400  0.31875200  0.60205100  1
  O  O35  1  0.20737400  0.48933200  0.19349700  1
  O  O36  1  0.79607600  0.28450300  0.99145600  1
  O  O37  1  0.28862600  0.53194100  0.69559000  1
  O  O38  1  0.87795900  0.32206300  0.50151800  1
  O  O39  1  0.41576800  0.52356200  0.86672100  1
  O  O40  1  0.57264700  0.50107900  0.13006500  1
  O  O41  1  0.15145800  0.62552200  0.50551000  1
  O  O42  1  0.75354200  0.42636200  0.30567100  1
  O  O43  1  0.19415900  0.74236700  0.00349800  1
  O  O44  1  0.80269800  0.51452700  0.80785100  1
  O  O45  1  0.60567800  0.68920600  0.39351200  1
  O  O46  1  0.07606200  0.92497500  0.10210100  1
  O  O47  1  0.67474200  0.74350100  0.90243400  1
  O  O48  1  0.19658100  0.93606700  0.25745900  1
  O  O49  1  0.79869800  0.73234700  0.05721400  1
  O  O50  1  0.37204800  0.90010400  0.53084200  1
  O  O51  1  0.97338200  0.70172100  0.33097400  1
  O  O52  1  0.54921900  0.83968800  0.70667300  1
  O  O53  1  0.59925100  0.92988400  0.20394600  1
  O  O54  1  0.00147900  0.89022100  0.59288400  1
