# generated using pymatgen
data_Li2VF6
_symmetry_space_group_name_H-M   'P 1'
_cell_length_a   4.86649100
_cell_length_b   7.80690000
_cell_length_c   10.53658124
_cell_angle_alpha   72.35807553
_cell_angle_beta   90.00000000
_cell_angle_gamma   90.00000000
_symmetry_Int_Tables_number   1
_chemical_formula_structural   Li2VF6
_chemical_formula_sum   'Li8 V4 F24'
_cell_volume   381.48117214
_cell_formula_units_Z   4
loop_
 _symmetry_equiv_pos_site_id
 _symmetry_equiv_pos_as_xyz
  1  'x, y, z'
loop_
 _atom_site_type_symbol
 _atom_site_label
 _atom_site_symmetry_multiplicity
 _atom_site_fract_x
 _atom_site_fract_y
 _atom_site_fract_z
 _atom_site_occupancy
  Li  Li0  1  0.45477500  0.96112100  0.65109700  1
  Li  Li1  1  0.04522500  0.96112100  0.15109700  1
  Li  Li2  1  0.01646600  0.60858900  0.80846500  1
  Li  Li3  1  0.48353400  0.60858900  0.30846500  1
  Li  Li4  1  0.51646600  0.39141100  0.69153500  1
  Li  Li5  1  0.98353400  0.39141100  0.19153500  1
  Li  Li6  1  0.95477500  0.03887900  0.84890300  1
  Li  Li7  1  0.54522500  0.03887900  0.34890300  1
  V  V8  1  0.97510600  0.72664700  0.50271000  1
  V  V9  1  0.52489400  0.72664700  0.00271000  1
  V  V10  1  0.47510600  0.27335300  0.99729000  1
  V  V11  1  0.02489400  0.27335300  0.49729000  1
  F  F12  1  0.64677700  0.87762700  0.82685200  1
  F  F13  1  0.19055300  0.76697100  0.90518800  1
  F  F14  1  0.75517600  0.90582600  0.53732600  1
  F  F15  1  0.21510600  0.75415300  0.63729100  1
  F  F16  1  0.85322300  0.87762700  0.32685200  1
  F  F17  1  0.70212200  0.54912800  0.93324700  1
  F  F18  1  0.30944700  0.76697100  0.40518800  1
  F  F19  1  0.74482400  0.90582600  0.03732600  1
  F  F20  1  0.78735300  0.57971600  0.65791300  1
  F  F21  1  0.28489400  0.75415300  0.13729100  1
  F  F22  1  0.28735300  0.42028400  0.84208700  1
  F  F23  1  0.79787800  0.54912800  0.43324700  1
  F  F24  1  0.20212200  0.45087200  0.56675300  1
  F  F25  1  0.71264700  0.57971600  0.15791300  1
  F  F26  1  0.71510600  0.24584700  0.86270900  1
  F  F27  1  0.21264700  0.42028400  0.34208700  1
  F  F28  1  0.25517600  0.09417400  0.96267400  1
  F  F29  1  0.69055300  0.23302900  0.59481200  1
  F  F30  1  0.29787800  0.45087200  0.06675300  1
  F  F31  1  0.14677700  0.12237300  0.67314800  1
  F  F32  1  0.78489400  0.24584700  0.36270900  1
  F  F33  1  0.24482400  0.09417400  0.46267400  1
  F  F34  1  0.80944700  0.23302900  0.09481200  1
  F  F35  1  0.35322300  0.12237300  0.17314800  1
