# generated using pymatgen
data_Li8MnFe7(PO4)8
_symmetry_space_group_name_H-M   'P 1'
_cell_length_a   7.72671439
_cell_length_b   7.72671439
_cell_length_c   10.44413200
_cell_angle_alpha   89.99903114
_cell_angle_beta   89.99903114
_cell_angle_gamma   104.04385178
_symmetry_Int_Tables_number   1
_chemical_formula_structural   Li8MnFe7(PO4)8
_chemical_formula_sum   'Li8 Mn1 Fe7 P8 O32'
_cell_volume   604.89943571
_cell_formula_units_Z   1
loop_
 _symmetry_equiv_pos_site_id
 _symmetry_equiv_pos_as_xyz
  1  'x, y, z'
loop_
 _atom_site_type_symbol
 _atom_site_label
 _atom_site_symmetry_multiplicity
 _atom_site_fract_x
 _atom_site_fract_y
 _atom_site_fract_z
 _atom_site_occupancy
  Li  Li0  1  0.00006700  0.74996800  0.99992600  1
  Li  Li1  1  0.99972200  0.24996800  0.50035800  1
  Li  Li2  1  0.24996800  0.99972200  0.50035800  1
  Li  Li3  1  0.49971800  0.75046200  0.50029300  1
  Li  Li4  1  0.24951700  0.50002100  0.99928400  1
  Li  Li5  1  0.74996800  0.00006700  0.99992600  1
  Li  Li6  1  0.50002100  0.24951700  0.99928400  1
  Li  Li7  1  0.75046200  0.49971800  0.50029300  1
  Mn  Mn8  1  0.38756600  0.38756600  0.28206300  1
  Fe  Fe9  1  0.11136300  0.11136300  0.78176500  1
  Fe  Fe10  1  0.38829700  0.88818400  0.21806000  1
  Fe  Fe11  1  0.11152500  0.61198600  0.71814200  1
  Fe  Fe12  1  0.61198600  0.11152500  0.71814200  1
  Fe  Fe13  1  0.88806100  0.88806100  0.28186400  1
  Fe  Fe14  1  0.61155300  0.61155300  0.78195700  1
  Fe  Fe15  1  0.88818400  0.38829700  0.21806000  1
  P  P16  1  0.33400300  0.83387200  0.90509500  1
  P  P17  1  0.16454400  0.16454400  0.09340500  1
  P  P18  1  0.33376700  0.33376700  0.59573700  1
  P  P19  1  0.83373800  0.83373800  0.59496600  1
  P  P20  1  0.66800500  0.16585800  0.40561800  1
  P  P21  1  0.16585800  0.66800500  0.40561800  1
  P  P22  1  0.83387200  0.33400300  0.90509500  1
  P  P23  1  0.66671500  0.66671500  0.09417800  1
  O  O24  1  0.12980700  0.83604800  0.33546200  1
  O  O25  1  0.00312300  0.00312300  0.09605800  1
  O  O26  1  0.16551300  0.86849800  0.83459100  1
  O  O27  1  0.27196000  0.77172700  0.04301600  1
  O  O28  1  0.22777000  0.22777000  0.95599200  1
  O  O29  1  0.33269800  0.12923400  0.16389500  1
  O  O30  1  0.12923400  0.33269800  0.16389500  1
  O  O31  1  0.63160700  0.83458200  0.16517700  1
  O  O32  1  0.49548400  0.99537500  0.90275200  1
  O  O33  1  0.00587100  0.50493800  0.40258200  1
  O  O34  1  0.50493800  0.00587100  0.40258200  1
  O  O35  1  0.16539200  0.36872500  0.66607600  1
  O  O36  1  0.66520200  0.86835700  0.66558300  1
  O  O37  1  0.36872500  0.16539200  0.66607600  1
  O  O38  1  0.77160000  0.77160000  0.45707100  1
  O  O39  1  0.27102800  0.27102800  0.45807000  1
  O  O40  1  0.72883300  0.22717500  0.54394500  1
  O  O41  1  0.22717500  0.72883300  0.54394500  1
  O  O42  1  0.33560500  0.63712900  0.33535500  1
  O  O43  1  0.63712900  0.33560500  0.33535500  1
  O  O44  1  0.83604800  0.12980700  0.33546200  1
  O  O45  1  0.99524100  0.99524100  0.59747400  1
  O  O46  1  0.49507900  0.49507900  0.59712500  1
  O  O47  1  0.50530000  0.50530000  0.09658400  1
  O  O48  1  0.36869500  0.66536600  0.83448400  1
  O  O49  1  0.66536600  0.36869500  0.83448400  1
  O  O50  1  0.86849800  0.16551300  0.83459100  1
  O  O51  1  0.77172700  0.27196000  0.04301600  1
  O  O52  1  0.72855900  0.72855900  0.95630300  1
  O  O53  1  0.83458200  0.63160700  0.16517700  1
  O  O54  1  0.99537500  0.49548400  0.90275200  1
  O  O55  1  0.86835700  0.66520200  0.66558300  1
