# generated using pymatgen
data_Li6Mn2B4SO16
_symmetry_space_group_name_H-M   'P 1'
_cell_length_a   9.37921849
_cell_length_b   9.37921849
_cell_length_c   9.37921849
_cell_angle_alpha   60.00000000
_cell_angle_beta   60.00000000
_cell_angle_gamma   60.00000000
_symmetry_Int_Tables_number   1
_chemical_formula_structural   Li6Mn2B4SO16
_chemical_formula_sum   'Li12 Mn4 B8 S2 O32'
_cell_volume   583.42490157
_cell_formula_units_Z   2
loop_
 _symmetry_equiv_pos_site_id
 _symmetry_equiv_pos_as_xyz
  1  'x, y, z'
loop_
 _atom_site_type_symbol
 _atom_site_label
 _atom_site_symmetry_multiplicity
 _atom_site_fract_x
 _atom_site_fract_y
 _atom_site_fract_z
 _atom_site_occupancy
  Li  Li0  1  0.52999300  0.97000700  0.97000700  1
  Li  Li1  1  0.52999300  0.52999300  0.97000700  1
  Li  Li2  1  0.27999300  0.27999300  0.72000700  1
  Li  Li3  1  0.97000700  0.52999300  0.52999300  1
  Li  Li4  1  0.72000700  0.27999300  0.72000700  1
  Li  Li5  1  0.27999300  0.72000700  0.27999300  1
  Li  Li6  1  0.52999300  0.97000700  0.52999300  1
  Li  Li7  1  0.97000700  0.52999300  0.97000700  1
  Li  Li8  1  0.27999300  0.72000700  0.72000700  1
  Li  Li9  1  0.72000700  0.27999300  0.27999300  1
  Li  Li10  1  0.72000700  0.72000700  0.27999300  1
  Li  Li11  1  0.97000700  0.97000700  0.52999300  1
  Mn  Mn12  1  0.12500000  0.62500000  0.12500000  1
  Mn  Mn13  1  0.62500000  0.12500000  0.12500000  1
  Mn  Mn14  1  0.12500000  0.12500000  0.62500000  1
  Mn  Mn15  1  0.12500000  0.12500000  0.12500000  1
  B  B16  1  0.27493400  0.90835500  0.90835500  1
  B  B17  1  0.34164500  0.34164500  0.97506600  1
  B  B18  1  0.34164500  0.34164500  0.34164500  1
  B  B19  1  0.90835500  0.27493400  0.90835500  1
  B  B20  1  0.34164500  0.97506600  0.34164500  1
  B  B21  1  0.90835500  0.90835500  0.90835500  1
  B  B22  1  0.97506600  0.34164500  0.34164500  1
  B  B23  1  0.90835500  0.90835500  0.27493400  1
  S  S24  1  0.50000000  0.50000000  0.50000000  1
  S  S25  1  0.75000000  0.75000000  0.75000000  1
  O  O26  1  0.56520900  0.56520900  0.30437200  1
  O  O27  1  0.56520900  0.56520900  0.56520900  1
  O  O28  1  0.56520900  0.30437200  0.56520900  1
  O  O29  1  0.20496300  0.49741600  0.32558100  1
  O  O30  1  0.30437200  0.56520900  0.56520900  1
  O  O31  1  0.49741600  0.20496300  0.97204000  1
  O  O32  1  0.97204000  0.32558100  0.49741600  1
  O  O33  1  0.32558100  0.49741600  0.97204000  1
  O  O34  1  0.27796000  0.04503700  0.92441900  1
  O  O35  1  0.04503700  0.27796000  0.75258400  1
  O  O36  1  0.49741600  0.32558100  0.20496300  1
  O  O37  1  0.20496300  0.32558100  0.97204000  1
  O  O38  1  0.27796000  0.75258400  0.04503700  1
  O  O39  1  0.92441900  0.04503700  0.75258400  1
  O  O40  1  0.49741600  0.97204000  0.32558100  1
  O  O41  1  0.32558100  0.97204000  0.20496300  1
  O  O42  1  0.92441900  0.27796000  0.04503700  1
  O  O43  1  0.32558100  0.20496300  0.49741600  1
  O  O44  1  0.75258400  0.27796000  0.92441900  1
  O  O45  1  0.97204000  0.49741600  0.20496300  1
  O  O46  1  0.04503700  0.92441900  0.27796000  1
  O  O47  1  0.75258400  0.92441900  0.04503700  1
  O  O48  1  0.20496300  0.97204000  0.49741600  1
  O  O49  1  0.97204000  0.20496300  0.32558100  1
  O  O50  1  0.92441900  0.75258400  0.27796000  1
  O  O51  1  0.27796000  0.92441900  0.75258400  1
  O  O52  1  0.75258400  0.04503700  0.27796000  1
  O  O53  1  0.94562800  0.68479100  0.68479100  1
  O  O54  1  0.04503700  0.75258400  0.92441900  1
  O  O55  1  0.68479100  0.94562800  0.68479100  1
  O  O56  1  0.68479100  0.68479100  0.68479100  1
  O  O57  1  0.68479100  0.68479100  0.94562800  1
