# generated using pymatgen
data_LiMnPH2O5
_symmetry_space_group_name_H-M   'P 1'
_cell_length_a   4.73668800
_cell_length_b   10.07549533
_cell_length_c   10.07916562
_cell_angle_alpha   70.85318159
_cell_angle_beta   90.00079198
_cell_angle_gamma   90.00065380
_symmetry_Int_Tables_number   1
_chemical_formula_structural   LiMnPH2O5
_chemical_formula_sum   'Li4 Mn4 P4 H8 O20'
_cell_volume   454.41331318
_cell_formula_units_Z   4
loop_
 _symmetry_equiv_pos_site_id
 _symmetry_equiv_pos_as_xyz
  1  'x, y, z'
loop_
 _atom_site_type_symbol
 _atom_site_label
 _atom_site_symmetry_multiplicity
 _atom_site_fract_x
 _atom_site_fract_y
 _atom_site_fract_z
 _atom_site_occupancy
  Li  Li0  1  0.09318400  0.21342500  0.21266700  1
  Li  Li1  1  0.09353900  0.71337500  0.71301700  1
  Li  Li2  1  0.59320500  0.53658200  0.03734800  1
  Li  Li3  1  0.59353200  0.03659800  0.53698300  1
  Mn  Mn4  1  0.02065300  0.98717300  0.98610700  1
  Mn  Mn5  1  0.52068100  0.76285000  0.26389500  1
  Mn  Mn6  1  0.02116500  0.48718400  0.48636500  1
  Mn  Mn7  1  0.52119300  0.26280800  0.76362700  1
  P  P8  1  0.59942600  0.11301800  0.11331200  1
  P  P9  1  0.59998500  0.61308500  0.61355800  1
  P  P10  1  0.09944500  0.63701300  0.13669200  1
  P  P11  1  0.09997800  0.13689400  0.63643800  1
  H  H12  1  0.55852200  0.46208700  0.32935900  1
  H  H13  1  0.55720900  0.96184100  0.82931600  1
  H  H14  1  0.05857200  0.28791600  0.92064000  1
  H  H15  1  0.05724400  0.78813600  0.42068400  1
  H  H16  1  0.05710400  0.42025800  0.78768700  1
  H  H17  1  0.05687300  0.92030300  0.28758200  1
  H  H18  1  0.55686000  0.82969500  0.96243400  1
  H  H19  1  0.55703500  0.32973000  0.46229300  1
  O  O20  1  0.27344100  0.10549500  0.10527800  1
  O  O21  1  0.27398600  0.60541500  0.60552200  1
  O  O22  1  0.77346400  0.64452500  0.14473100  1
  O  O23  1  0.77396300  0.14456400  0.64447300  1
  O  O24  1  0.69168000  0.20292000  0.20208700  1
  O  O25  1  0.69210900  0.70298700  0.70237200  1
  O  O26  1  0.19170400  0.54712500  0.04790300  1
  O  O27  1  0.19211400  0.04699200  0.54762100  1
  O  O28  1  0.68569700  0.39087900  0.39124300  1
  O  O29  1  0.68497400  0.89076000  0.89103200  1
  O  O30  1  0.18575100  0.35911200  0.85874500  1
  O  O31  1  0.18499400  0.85923300  0.35897700  1
  O  O32  1  0.72781300  0.17147400  0.96011400  1
  O  O33  1  0.72839600  0.67164300  0.46026700  1
  O  O34  1  0.22783900  0.57854800  0.28988700  1
  O  O35  1  0.22838300  0.07833500  0.78973900  1
  O  O36  1  0.22721400  0.79012900  0.07717100  1
  O  O37  1  0.22812900  0.28998200  0.57696200  1
  O  O38  1  0.72812900  0.46000600  0.67302700  1
  O  O39  1  0.72721300  0.95990600  0.17284500  1
