# generated using pymatgen
data_Li3VF5
_symmetry_space_group_name_H-M   'P 1'
_cell_length_a   6.63363500
_cell_length_b   7.88906800
_cell_length_c   8.10678100
_cell_angle_alpha   90.00000000
_cell_angle_beta   90.00000000
_cell_angle_gamma   90.00000000
_symmetry_Int_Tables_number   1
_chemical_formula_structural   Li3VF5
_chemical_formula_sum   'Li12 V4 F20'
_cell_volume   424.25377199
_cell_formula_units_Z   4
loop_
 _symmetry_equiv_pos_site_id
 _symmetry_equiv_pos_as_xyz
  1  'x, y, z'
loop_
 _atom_site_type_symbol
 _atom_site_label
 _atom_site_symmetry_multiplicity
 _atom_site_fract_x
 _atom_site_fract_y
 _atom_site_fract_z
 _atom_site_occupancy
  Li  Li0  1  0.98359600  0.92629400  0.22797600  1
  Li  Li1  1  0.98359600  0.57370600  0.22797600  1
  Li  Li2  1  0.79167800  0.25000000  0.52775700  1
  Li  Li3  1  0.70832200  0.75000000  0.02775700  1
  Li  Li4  1  0.51640400  0.42629400  0.72797600  1
  Li  Li5  1  0.51640400  0.07370600  0.72797600  1
  Li  Li6  1  0.48359600  0.92629400  0.27202400  1
  Li  Li7  1  0.48359600  0.57370600  0.27202400  1
  Li  Li8  1  0.29167800  0.25000000  0.97224300  1
  Li  Li9  1  0.20832200  0.75000000  0.47224300  1
  Li  Li10  1  0.01640400  0.07370600  0.77202400  1
  Li  Li11  1  0.01640400  0.42629400  0.77202400  1
  V  V12  1  0.77082300  0.75000000  0.60211300  1
  V  V13  1  0.72917700  0.25000000  0.10211300  1
  V  V14  1  0.27082300  0.75000000  0.89788700  1
  V  V15  1  0.22917700  0.25000000  0.39788700  1
  F  F16  1  0.99383600  0.25000000  0.95562100  1
  F  F17  1  0.92638600  0.75000000  0.37848500  1
  F  F18  1  0.92000400  0.25000000  0.31234200  1
  F  F19  1  0.77712400  0.48337700  0.64098300  1
  F  F20  1  0.77712400  0.01662300  0.64098300  1
  F  F21  1  0.72287600  0.98337700  0.14098300  1
  F  F22  1  0.72287600  0.51662300  0.14098300  1
  F  F23  1  0.57999600  0.75000000  0.81234200  1
  F  F24  1  0.57361400  0.25000000  0.87848500  1
  F  F25  1  0.50616400  0.75000000  0.45562100  1
  F  F26  1  0.49383600  0.25000000  0.54437900  1
  F  F27  1  0.42638600  0.75000000  0.12151500  1
  F  F28  1  0.42000400  0.25000000  0.18765800  1
  F  F29  1  0.27712400  0.48337700  0.85901700  1
  F  F30  1  0.27712400  0.01662300  0.85901700  1
  F  F31  1  0.22287600  0.98337700  0.35901700  1
  F  F32  1  0.22287600  0.51662300  0.35901700  1
  F  F33  1  0.07999600  0.75000000  0.68765800  1
  F  F34  1  0.07361400  0.25000000  0.62151500  1
  F  F35  1  0.00616400  0.75000000  0.04437900  1
