# generated using pymatgen
data_LiMn2(BO3)2
_symmetry_space_group_name_H-M   'P 1'
_cell_length_a   5.35828400
_cell_length_b   9.09079943
_cell_length_c   11.39419616
_cell_angle_alpha   112.57606298
_cell_angle_beta   101.84190558
_cell_angle_gamma   89.62817481
_symmetry_Int_Tables_number   1
_chemical_formula_structural   LiMn2(BO3)2
_chemical_formula_sum   'Li4 Mn8 B8 O24'
_cell_volume   499.97802366
_cell_formula_units_Z   4
loop_
 _symmetry_equiv_pos_site_id
 _symmetry_equiv_pos_as_xyz
  1  'x, y, z'
loop_
 _atom_site_type_symbol
 _atom_site_label
 _atom_site_symmetry_multiplicity
 _atom_site_fract_x
 _atom_site_fract_y
 _atom_site_fract_z
 _atom_site_occupancy
  Li  Li0  1  0.28726300  0.18115100  0.32739600  1
  Li  Li1  1  0.56982100  0.40932800  0.85097800  1
  Li  Li2  1  0.07590100  0.91479600  0.83666300  1
  Li  Li3  1  0.66068300  0.79765500  0.58427800  1
  Mn  Mn4  1  0.08434400  0.60911400  0.86879500  1
  Mn  Mn5  1  0.64728900  0.46006700  0.61454700  1
  Mn  Mn6  1  0.39713800  0.90560100  0.11270900  1
  Mn  Mn7  1  0.16774900  0.99462900  0.62454800  1
  Mn  Mn8  1  0.82306400  0.98547000  0.36431700  1
  Mn  Mn9  1  0.59919800  0.09245200  0.88185000  1
  Mn  Mn10  1  0.34210500  0.54040100  0.36935500  1
  Mn  Mn11  1  0.91075200  0.38044400  0.12664500  1
  B  B12  1  0.60554500  0.75816100  0.86682200  1
  B  B13  1  0.83844500  0.33358100  0.36364300  1
  B  B14  1  0.10234200  0.27348800  0.87829100  1
  B  B15  1  0.65266800  0.12788100  0.62913600  1
  B  B16  1  0.36513900  0.87137900  0.37717200  1
  B  B17  1  0.89560100  0.72173100  0.11809000  1
  B  B18  1  0.15377100  0.65194600  0.63173800  1
  B  B19  1  0.38717800  0.25447200  0.12991500  1
  O  O20  1  0.36471700  0.78492300  0.90155300  1
  O  O21  1  0.05518400  0.54515600  0.67792300  1
  O  O22  1  0.95305100  0.20244600  0.36709000  1
  O  O23  1  0.68945700  0.60358300  0.83115400  1
  O  O24  1  0.61158900  0.37769200  0.40877400  1
  O  O25  1  0.21758800  0.40058400  0.87088900  1
  O  O26  1  0.27116000  0.12914800  0.13959900  1
  O  O27  1  0.56844900  0.27470500  0.66211600  1
  O  O28  1  0.19128900  0.11977100  0.83022800  1
  O  O29  1  0.44374400  0.97838300  0.32650100  1
  O  O30  1  0.88199200  0.28530300  0.93131800  1
  O  O31  1  0.13637600  0.89598000  0.41840300  1
  O  O32  1  0.83969200  0.07728300  0.55553300  1
  O  O33  1  0.09401100  0.72796000  0.05398300  1
  O  O34  1  0.56173400  0.01563000  0.67093200  1
  O  O35  1  0.79370900  0.87088000  0.17626600  1
  O  O36  1  0.03469900  0.78886100  0.64234000  1
  O  O37  1  0.51268900  0.75669800  0.39456900  1
  O  O38  1  0.75095100  0.88108000  0.87063000  1
  O  O39  1  0.80339000  0.58962700  0.12212000  1
  O  O40  1  0.36960300  0.61627000  0.57703100  1
  O  O41  1  0.28925500  0.40594500  0.16586900  1
  O  O42  1  0.95114300  0.43501900  0.31609700  1
  O  O43  1  0.60593000  0.23648700  0.07928800  1
