# generated using pymatgen
data_Na2Li2V3P2O13
_symmetry_space_group_name_H-M   'P 1'
_cell_length_a   12.34869800
_cell_length_b   8.81368200
_cell_length_c   10.30745982
_cell_angle_alpha   88.10605487
_cell_angle_beta   90.00000000
_cell_angle_gamma   90.00000000
_symmetry_Int_Tables_number   1
_chemical_formula_structural   Na2Li2V3P2O13
_chemical_formula_sum   'Na8 Li8 V12 P8 O52'
_cell_volume   1121.22528583
_cell_formula_units_Z   4
loop_
 _symmetry_equiv_pos_site_id
 _symmetry_equiv_pos_as_xyz
  1  'x, y, z'
loop_
 _atom_site_type_symbol
 _atom_site_label
 _atom_site_symmetry_multiplicity
 _atom_site_fract_x
 _atom_site_fract_y
 _atom_site_fract_z
 _atom_site_occupancy
  Na  Na0  1  0.47224000  0.37956300  0.71540300  1
  Na  Na1  1  0.02776000  0.87956300  0.71540300  1
  Na  Na2  1  0.47155100  0.93223700  0.79829300  1
  Na  Na3  1  0.02844900  0.43223700  0.79829300  1
  Na  Na4  1  0.52844900  0.06776300  0.20170700  1
  Na  Na5  1  0.97155100  0.56776300  0.20170700  1
  Na  Na6  1  0.52776000  0.62043700  0.28459700  1
  Na  Na7  1  0.97224000  0.12043700  0.28459700  1
  Li  Li8  1  0.91389200  0.19020400  0.73685900  1
  Li  Li9  1  0.58610800  0.69020400  0.73685900  1
  Li  Li10  1  0.26339600  0.63150700  0.75788300  1
  Li  Li11  1  0.23660400  0.13150700  0.75788300  1
  Li  Li12  1  0.76339600  0.86849300  0.24211700  1
  Li  Li13  1  0.73660400  0.36849300  0.24211700  1
  Li  Li14  1  0.41389200  0.30979600  0.26314100  1
  Li  Li15  1  0.08610800  0.80979600  0.26314100  1
  V  V16  1  0.12276000  0.24301300  0.52650700  1
  V  V17  1  0.37724000  0.74301300  0.52650700  1
  V  V18  1  0.74314800  0.42737400  0.74701700  1
  V  V19  1  0.75685200  0.92737400  0.74701700  1
  V  V20  1  0.14212000  0.75796600  0.97409800  1
  V  V21  1  0.35788000  0.25796600  0.97409800  1
  V  V22  1  0.64212000  0.74203400  0.02590200  1
  V  V23  1  0.85788000  0.24203400  0.02590200  1
  V  V24  1  0.24314800  0.07262600  0.25298300  1
  V  V25  1  0.25685200  0.57262600  0.25298300  1
  V  V26  1  0.87724000  0.75698700  0.47349300  1
  V  V27  1  0.62276000  0.25698700  0.47349300  1
  P  P28  1  0.37350200  0.12026400  0.52277900  1
  P  P29  1  0.12649800  0.62026400  0.52277900  1
  P  P30  1  0.11519700  0.12831700  0.98010300  1
  P  P31  1  0.38480300  0.62831700  0.98010300  1
  P  P32  1  0.61519700  0.37168300  0.01989700  1
  P  P33  1  0.88480300  0.87168300  0.01989700  1
  P  P34  1  0.87350200  0.37973600  0.47722100  1
  P  P35  1  0.62649800  0.87973600  0.47722100  1
  O  O36  1  0.28123300  0.21875600  0.58062400  1
  O  O37  1  0.21876700  0.71875600  0.58062400  1
  O  O38  1  0.48154800  0.19239400  0.56256000  1
  O  O39  1  0.01845200  0.69239400  0.56256000  1
  O  O40  1  0.13937800  0.45821400  0.58474200  1
  O  O41  1  0.36062200  0.95821400  0.58474200  1
  O  O42  1  0.85600300  0.87152700  0.61293300  1
  O  O43  1  0.64399700  0.37152700  0.61293300  1
  O  O44  1  0.62960800  0.88098800  0.62832900  1
  O  O45  1  0.87039200  0.38098800  0.62832900  1
  O  O46  1  0.43040600  0.65379700  0.66382300  1
  O  O47  1  0.06959400  0.15379700  0.66382300  1
  O  O48  1  0.75985100  0.11790700  0.74380000  1
  O  O49  1  0.74014900  0.61790700  0.74380000  1
  O  O50  1  0.39626000  0.16053300  0.84327500  1
  O  O51  1  0.10374000  0.66053300  0.84327500  1
  O  O52  1  0.61711500  0.39290400  0.87107800  1
  O  O53  1  0.88288500  0.89290400  0.87107800  1
  O  O54  1  0.65383800  0.85932800  0.87654500  1
  O  O55  1  0.84616200  0.35932800  0.87654500  1
  O  O56  1  0.35400600  0.47922900  0.90965600  1
  O  O57  1  0.14599400  0.97922900  0.90965600  1
  O  O58  1  0.49772100  0.68736300  0.93615800  1
  O  O59  1  0.00227900  0.18736300  0.93615800  1
  O  O60  1  0.30146700  0.75008400  0.92865200  1
  O  O61  1  0.19853300  0.25008400  0.92865200  1
  O  O62  1  0.80146700  0.74991600  0.07134800  1
  O  O63  1  0.69853300  0.24991600  0.07134800  1
  O  O64  1  0.99772100  0.81263700  0.06384200  1
  O  O65  1  0.50227900  0.31263700  0.06384200  1
  O  O66  1  0.85400600  0.02077100  0.09034400  1
  O  O67  1  0.64599400  0.52077100  0.09034400  1
  O  O68  1  0.34616200  0.14067200  0.12345500  1
  O  O69  1  0.15383800  0.64067200  0.12345500  1
  O  O70  1  0.11711500  0.10709600  0.12892200  1
  O  O71  1  0.38288500  0.60709600  0.12892200  1
  O  O72  1  0.89626000  0.33946700  0.15672500  1
  O  O73  1  0.60374000  0.83946700  0.15672500  1
  O  O74  1  0.25985100  0.38209300  0.25620000  1
  O  O75  1  0.24014900  0.88209300  0.25620000  1
  O  O76  1  0.56959400  0.34620300  0.33617700  1
  O  O77  1  0.93040600  0.84620300  0.33617700  1
  O  O78  1  0.37039200  0.11901200  0.37167100  1
  O  O79  1  0.12960800  0.61901200  0.37167100  1
  O  O80  1  0.35600300  0.62847300  0.38706700  1
  O  O81  1  0.14399700  0.12847300  0.38706700  1
  O  O82  1  0.63937800  0.04178600  0.41525800  1
  O  O83  1  0.86062200  0.54178600  0.41525800  1
  O  O84  1  0.98154800  0.30760600  0.43744000  1
  O  O85  1  0.51845200  0.80760600  0.43744000  1
  O  O86  1  0.71876700  0.78124400  0.41937600  1
  O  O87  1  0.78123300  0.28124400  0.41937600  1
