# generated using pymatgen
data_Li4Ni7(OF7)2
_symmetry_space_group_name_H-M   'P 1'
_cell_length_a   5.95011687
_cell_length_b   5.95011687
_cell_length_c   10.57396850
_cell_angle_alpha   73.30782276
_cell_angle_beta   73.30782276
_cell_angle_gamma   61.10522409
_symmetry_Int_Tables_number   1
_chemical_formula_structural   Li4Ni7(OF7)2
_chemical_formula_sum   'Li4 Ni7 O2 F14'
_cell_volume   308.98681865
_cell_formula_units_Z   1
loop_
 _symmetry_equiv_pos_site_id
 _symmetry_equiv_pos_as_xyz
  1  'x, y, z'
loop_
 _atom_site_type_symbol
 _atom_site_label
 _atom_site_symmetry_multiplicity
 _atom_site_fract_x
 _atom_site_fract_y
 _atom_site_fract_z
 _atom_site_occupancy
  Li  Li0  1  0.57220200  0.57220200  0.29904300  1
  Li  Li1  1  0.92106500  0.92106500  0.20959900  1
  Li  Li2  1  0.42779800  0.42779800  0.70095700  1
  Li  Li3  1  0.07893500  0.07893500  0.79040100  1
  Ni  Ni4  1  0.25933000  0.25933000  0.24222500  1
  Ni  Ni5  1  0.50000000  0.00000000  0.00000000  1
  Ni  Ni6  1  0.50000000  0.00000000  0.50000000  1
  Ni  Ni7  1  0.00000000  0.50000000  0.00000000  1
  Ni  Ni8  1  0.00000000  0.00000000  0.50000000  1
  Ni  Ni9  1  0.74067000  0.74067000  0.75777500  1
  Ni  Ni10  1  0.00000000  0.50000000  0.50000000  1
  O  O11  1  0.13631700  0.13631700  0.59381700  1
  O  O12  1  0.86368300  0.86368300  0.40618300  1
  F  F13  1  0.39349700  0.88779300  0.87234900  1
  F  F14  1  0.11220700  0.60650300  0.12765100  1
  F  F15  1  0.37417700  0.37417700  0.36622500  1
  F  F16  1  0.13450500  0.13450500  0.12293800  1
  F  F17  1  0.86549500  0.86549500  0.87706200  1
  F  F18  1  0.35771700  0.35771700  0.88928500  1
  F  F19  1  0.64228300  0.64228300  0.11071500  1
  F  F20  1  0.89744100  0.36827400  0.36642500  1
  F  F21  1  0.36827400  0.89744100  0.36642500  1
  F  F22  1  0.88779300  0.39349700  0.87234900  1
  F  F23  1  0.63172600  0.10255900  0.63357500  1
  F  F24  1  0.10255900  0.63172600  0.63357500  1
  F  F25  1  0.60650300  0.11220700  0.12765100  1
  F  F26  1  0.62582300  0.62582300  0.63377500  1
