# generated using pymatgen
data_Li7Fe(O2F)2
_symmetry_space_group_name_H-M   'P 1'
_cell_length_a   5.52704745
_cell_length_b   5.93716793
_cell_length_c   10.12060988
_cell_angle_alpha   84.50641169
_cell_angle_beta   76.15218507
_cell_angle_gamma   118.23215149
_symmetry_Int_Tables_number   1
_chemical_formula_structural   Li7Fe(O2F)2
_chemical_formula_sum   'Li14 Fe2 O8 F4'
_cell_volume   275.48936201
_cell_formula_units_Z   2
loop_
 _symmetry_equiv_pos_site_id
 _symmetry_equiv_pos_as_xyz
  1  'x, y, z'
loop_
 _atom_site_type_symbol
 _atom_site_label
 _atom_site_symmetry_multiplicity
 _atom_site_fract_x
 _atom_site_fract_y
 _atom_site_fract_z
 _atom_site_occupancy
  Li  Li0  1  0.09608385  0.07183592  0.22672902  1
  Li  Li1  1  0.10150392  0.60474091  0.75144462  1
  Li  Li2  1  0.47809730  0.94310205  0.38202781  1
  Li  Li3  1  0.52584407  0.55782519  0.11905976  1
  Li  Li4  1  0.28517304  0.26160174  0.44219132  1
  Li  Li5  1  0.20543805  0.66901495  0.95631940  1
  Li  Li6  1  0.32931167  0.34359494  0.67642613  1
  Li  Li7  1  0.74607528  0.27834121  0.05755215  1
  Li  Li8  1  0.75567166  0.78781086  0.54055768  1
  Li  Li9  1  0.48406522  0.47527770  0.87842606  1
  Li  Li10  1  0.50024928  0.00478355  0.61486620  1
  Li  Li11  1  0.90618888  0.46850604  0.26843531  1
  Li  Li12  1  0.90730600  0.87988351  0.75011491  1
  Li  Li13  1  0.66990435  0.14887030  0.82425829  1
  Fe  Fe14  1  0.07839591  0.01757822  0.97663058  1
  Fe  Fe15  1  0.95057914  0.45462838  0.54392307  1
  O  O16  1  0.24835884  0.94716593  0.80331098  1
  O  O17  1  0.39461853  0.22621239  0.03879723  1
  O  O18  1  0.34736252  0.67163580  0.55358405  1
  O  O19  1  0.06471892  0.32943769  0.88833790  1
  O  O20  1  0.91771158  0.67486218  0.09976465  1
  O  O21  1  0.64087593  0.30993535  0.46365710  1
  O  O22  1  0.75146733  0.53700301  0.70190013  1
  O  O23  1  0.90977933  0.12324699  0.61969690  1
  F  F24  1  0.10837824  0.90116607  0.38890562  1
  F  F25  1  0.22935182  0.43062507  0.29166204  1
  F  F26  1  0.60067839  0.79514567  0.93397366  1
  F  F27  1  0.76681398  0.08616735  0.20744841  1
