# generated using pymatgen
data_Li4V3P8O29
_symmetry_space_group_name_H-M   'P 1'
_cell_length_a   9.75421610
_cell_length_b   9.75421610
_cell_length_c   14.16685620
_cell_angle_alpha   89.66910254
_cell_angle_beta   89.66910254
_cell_angle_gamma   60.06136467
_symmetry_Int_Tables_number   1
_chemical_formula_structural   Li4V3P8O29
_chemical_formula_sum   'Li8 V6 P16 O58'
_cell_volume   1168.01229752
_cell_formula_units_Z   2
loop_
 _symmetry_equiv_pos_site_id
 _symmetry_equiv_pos_as_xyz
  1  'x, y, z'
loop_
 _atom_site_type_symbol
 _atom_site_label
 _atom_site_symmetry_multiplicity
 _atom_site_fract_x
 _atom_site_fract_y
 _atom_site_fract_z
 _atom_site_occupancy
  Li  Li0  1  0.91032100  0.33043700  0.43885000  1
  Li  Li1  1  0.76560500  0.33206300  0.94173900  1
  Li  Li2  1  0.33043700  0.91032100  0.93885000  1
  Li  Li3  1  0.66850400  0.23103100  0.55713600  1
  Li  Li4  1  0.33206300  0.76560500  0.44173900  1
  Li  Li5  1  0.23103100  0.66850400  0.05713600  1
  Li  Li6  1  0.95191200  0.01034500  0.00426000  1
  Li  Li7  1  0.01034500  0.95191200  0.50426000  1
  V  V8  1  0.56590100  0.43375700  0.75086100  1
  V  V9  1  0.43375700  0.56590100  0.25086100  1
  V  V10  1  0.56671500  0.99619600  0.25045200  1
  V  V11  1  0.43853400  0.00422500  0.74872600  1
  V  V12  1  0.99619600  0.56671500  0.75045200  1
  V  V13  1  0.00422500  0.43853400  0.24872600  1
  P  P14  1  0.91649700  0.78167600  0.16103900  1
  P  P15  1  0.78167600  0.91649700  0.66103900  1
  P  P16  1  0.91464600  0.31256500  0.65332200  1
  P  P17  1  0.66525400  0.66669200  0.86869900  1
  P  P18  1  0.66669200  0.66525400  0.36869900  1
  P  P19  1  0.77694900  0.31551000  0.15911100  1
  P  P20  1  0.68734200  0.22265100  0.33862900  1
  P  P21  1  0.31256500  0.91464600  0.15332200  1
  P  P22  1  0.69518300  0.08343700  0.84638200  1
  P  P23  1  0.31551000  0.77694900  0.65911100  1
  P  P24  1  0.22265100  0.68734200  0.83862900  1
  P  P25  1  0.33205000  0.33593200  0.63208400  1
  P  P26  1  0.33593200  0.33205000  0.13208400  1
  P  P27  1  0.08343700  0.69518300  0.34638200  1
  P  P28  1  0.22051400  0.08302700  0.33716400  1
  P  P29  1  0.08302700  0.22051400  0.83716400  1
  O  O30  1  0.00599600  0.78865800  0.43205300  1
  O  O31  1  0.91451800  0.74206400  0.66569000  1
  O  O32  1  0.78865800  0.00599600  0.93205300  1
  O  O33  1  0.74206400  0.91451800  0.16569000  1
  O  O34  1  0.92314700  0.61902300  0.17150600  1
  O  O35  1  0.81104600  0.66849400  0.82063300  1
  O  O36  1  0.91281600  0.46981500  0.67209800  1
  O  O37  1  0.98990800  0.20606100  0.91692500  1
  O  O38  1  0.91540500  0.34996700  0.17210400  1
  O  O39  1  0.66849400  0.81104600  0.32063300  1
  O  O40  1  0.61902300  0.92314700  0.67150600  1
  O  O41  1  0.81453900  0.51368000  0.32775200  1
  O  O42  1  0.66567800  0.66609200  0.97378700  1
  O  O43  1  0.66609200  0.66567800  0.47378700  1
  O  O44  1  0.67305400  0.51214000  0.82989200  1
  O  O45  1  0.46981500  0.91281600  0.17209800  1
  O  O46  1  0.51368000  0.81453900  0.82775200  1
  O  O47  1  0.74334900  0.33970600  0.66297600  1
  O  O48  1  0.79684800  0.20135400  0.24804600  1
  O  O49  1  0.77334700  0.22046700  0.42746900  1
  O  O50  1  0.79507800  0.23025100  0.06862300  1
  O  O51  1  0.61965500  0.46800300  0.17186400  1
  O  O52  1  0.51214000  0.67305400  0.32989200  1
  O  O53  1  0.65640400  0.25837700  0.83919200  1
  O  O54  1  0.46800300  0.61965500  0.67186400  1
  O  O55  1  0.34996700  0.91540500  0.67210400  1
  O  O56  1  0.80142100  0.99863800  0.75368800  1
  O  O57  1  0.79410500  0.00380200  0.57701400  1
  O  O58  1  0.20606100  0.98990800  0.41692500  1
  O  O59  1  0.65676000  0.08246200  0.33374100  1
  O  O60  1  0.52985300  0.38050000  0.32626400  1
  O  O61  1  0.33970600  0.74334900  0.16297500  1
  O  O62  1  0.48684000  0.32792600  0.66788600  1
  O  O63  1  0.38050000  0.52985300  0.82626400  1
  O  O64  1  0.22046700  0.77334700  0.92746900  1
  O  O65  1  0.23025100  0.79507800  0.56862300  1
  O  O66  1  0.20135400  0.79684800  0.74804600  1
  O  O67  1  0.25837700  0.65640400  0.33919200  1
  O  O68  1  0.47935200  0.18616700  0.18035900  1
  O  O69  1  0.54087100  0.07613700  0.83114000  1
  O  O70  1  0.32792600  0.48684000  0.16788600  1
  O  O71  1  0.32867900  0.32734400  0.02778000  1
  O  O72  1  0.32734400  0.32867900  0.52778000  1
  O  O73  1  0.18616700  0.47935200  0.68035900  1
  O  O74  1  0.38273900  0.07527800  0.32833900  1
  O  O75  1  0.33466800  0.18705500  0.68237400  1
  O  O76  1  0.08246200  0.65676000  0.83374100  1
  O  O77  1  0.99863800  0.80142100  0.25368800  1
  O  O78  1  0.00380200  0.79410500  0.07701400  1
  O  O79  1  0.07613700  0.54087100  0.33114000  1
  O  O80  1  0.18705500  0.33466800  0.18237400  1
  O  O81  1  0.07527800  0.38273900  0.82833900  1
  O  O82  1  0.25837700  0.08476600  0.83916000  1
  O  O83  1  0.23673400  0.98521600  0.06099400  1
  O  O84  1  0.19609100  0.01385400  0.23852300  1
  O  O85  1  0.08476600  0.25837700  0.33916000  1
  O  O86  1  0.98521600  0.23673400  0.56099400  1
  O  O87  1  0.01385400  0.19609100  0.73852300  1
