# generated using pymatgen
data_Li21(Co4O9)2
_symmetry_space_group_name_H-M   'P 1'
_cell_length_a   7.69332300
_cell_length_b   7.80032120
_cell_length_c   9.73403257
_cell_angle_alpha   75.33991602
_cell_angle_beta   77.53072972
_cell_angle_gamma   60.65295859
_symmetry_Int_Tables_number   1
_chemical_formula_structural   Li21(Co4O9)2
_chemical_formula_sum   'Li21 Co8 O18'
_cell_volume   489.66913884
_cell_formula_units_Z   1
loop_
 _symmetry_equiv_pos_site_id
 _symmetry_equiv_pos_as_xyz
  1  'x, y, z'
loop_
 _atom_site_type_symbol
 _atom_site_label
 _atom_site_symmetry_multiplicity
 _atom_site_fract_x
 _atom_site_fract_y
 _atom_site_fract_z
 _atom_site_occupancy
  Li  Li0  1  0.03007400  0.16197300  0.13220200  1
  Li  Li1  1  0.89436400  0.61477300  0.09534000  1
  Li  Li2  1  0.41837200  0.91964000  0.13370500  1
  Li  Li3  1  0.26059800  0.33527600  0.15800200  1
  Li  Li4  1  0.17496700  0.86917100  0.34599700  1
  Li  Li5  1  0.15534500  0.71376800  0.15169200  1
  Li  Li6  1  0.52858800  0.62342600  0.39297500  1
  Li  Li7  1  0.41693900  0.07706200  0.38012500  1
  Li  Li8  1  0.30109600  0.46668300  0.37695200  1
  Li  Li9  1  0.67772000  0.18619400  0.38468000  1
  Li  Li10  1  0.33274600  0.82128700  0.60488700  1
  Li  Li11  1  0.70536200  0.53869900  0.62253300  1
  Li  Li12  1  0.58738700  0.93121800  0.62345600  1
  Li  Li13  1  0.47034000  0.37866600  0.61009100  1
  Li  Li14  1  0.84606000  0.12446600  0.63075900  1
  Li  Li15  1  0.84491600  0.31482600  0.85339000  1
  Li  Li16  1  0.73362000  0.67761200  0.84664300  1
  Li  Li17  1  0.49377300  0.11546000  0.88863300  1
  Li  Li18  1  0.78891500  0.05387100  0.85531100  1
  Li  Li19  1  0.09478900  0.38507400  0.90523200  1
  Li  Li20  1  0.02957000  0.78616300  0.84365700  1
  Co  Co21  1  0.03029700  0.66833400  0.62363100  1
  Co  Co22  1  0.83807600  0.75272300  0.36938800  1
  Co  Co23  1  0.17922300  0.23576400  0.63413600  1
  Co  Co24  1  0.27144400  0.96491600  0.85293600  1
  Co  Co25  1  0.58151600  0.47550500  0.11825300  1
  Co  Co26  1  0.71652700  0.03676300  0.14429800  1
  Co  Co27  1  0.98109600  0.31112700  0.37401600  1
  Co  Co28  1  0.40822200  0.53127600  0.87814500  1
  O  O29  1  0.71064500  0.90464900  0.01990700  1
  O  O30  1  0.39279800  0.68016800  0.22371500  1
  O  O31  1  0.20034500  0.11518700  0.28551900  1
  O  O32  1  0.51524100  0.25871100  0.22478700  1
  O  O33  1  0.04962600  0.53251900  0.28874300  1
  O  O34  1  0.92259800  0.95781700  0.26356700  1
  O  O35  1  0.73916200  0.34661400  0.47504900  1
  O  O36  1  0.59502500  0.79500500  0.46882100  1
  O  O37  1  0.41841300  0.20637700  0.52961800  1
  O  O38  1  0.26548300  0.66181200  0.52515400  1
  O  O39  1  0.03593300  0.05295300  0.76669000  1
  O  O40  1  0.94544200  0.47101700  0.71237700  1
  O  O41  1  0.48434500  0.73360300  0.77388000  1
  O  O42  1  0.81503300  0.88083600  0.71478000  1
  O  O43  1  0.59669600  0.31241800  0.79156800  1
  O  O44  1  0.26147800  0.10641700  0.98169700  1
  O  O45  1  0.83578300  0.43585600  0.01887100  1
  O  O46  1  0.17044000  0.56219300  0.98492800  1
