# generated using pymatgen
data_LiCr(SiO3)2
_symmetry_space_group_name_H-M   'P 1'
_cell_length_a   5.21322700
_cell_length_b   8.79816131
_cell_length_c   18.33961303
_cell_angle_alpha   90.08654741
_cell_angle_beta   90.02743008
_cell_angle_gamma   90.01528424
_symmetry_Int_Tables_number   1
_chemical_formula_structural   LiCr(SiO3)2
_chemical_formula_sum   'Li8 Cr8 Si16 O48'
_cell_volume   841.17849873
_cell_formula_units_Z   8
loop_
 _symmetry_equiv_pos_site_id
 _symmetry_equiv_pos_as_xyz
  1  'x, y, z'
loop_
 _atom_site_type_symbol
 _atom_site_label
 _atom_site_symmetry_multiplicity
 _atom_site_fract_x
 _atom_site_fract_y
 _atom_site_fract_z
 _atom_site_occupancy
  Li  Li0  1  0.37407300  0.01431500  0.12437600  1
  Li  Li1  1  0.87448100  0.48624000  0.12324200  1
  Li  Li2  1  0.86789700  0.33942100  0.37448900  1
  Li  Li3  1  0.87485100  0.00844700  0.37647000  1
  Li  Li4  1  0.62882800  0.50487300  0.62276100  1
  Li  Li5  1  0.63177100  0.84173000  0.62279500  1
  Li  Li6  1  0.63152900  0.34236800  0.87694800  1
  Li  Li7  1  0.12942300  0.15912800  0.87711300  1
  Cr  Cr8  1  0.37842700  0.65375900  0.12533100  1
  Cr  Cr9  1  0.87642400  0.84735000  0.12513500  1
  Cr  Cr10  1  0.37464100  0.15267200  0.37479600  1
  Cr  Cr11  1  0.35643000  0.50920400  0.37612000  1
  Cr  Cr12  1  0.14721300  0.01315400  0.62319100  1
  Cr  Cr13  1  0.12524900  0.65232700  0.62268800  1
  Cr  Cr14  1  0.64285000  0.99546500  0.87653700  1
  Cr  Cr15  1  0.14372400  0.50373900  0.87612300  1
  Si  Si16  1  0.29163600  0.34098000  0.02675400  1
  Si  Si17  1  0.79127000  0.15897300  0.02671700  1
  Si  Si18  1  0.55050400  0.34239700  0.22587600  1
  Si  Si19  1  0.05736400  0.15667700  0.22708900  1
  Si  Si20  1  0.56473600  0.84234600  0.27466400  1
  Si  Si21  1  0.05946200  0.66021600  0.27295400  1
  Si  Si22  1  0.29683800  0.83800700  0.47185300  1
  Si  Si23  1  0.79726000  0.66019900  0.47319000  1
  Si  Si24  1  0.20210800  0.33717300  0.52738900  1
  Si  Si25  1  0.70209000  0.16003800  0.52611800  1
  Si  Si26  1  0.94037200  0.34616800  0.72771800  1
  Si  Si27  1  0.44545200  0.15642600  0.73002500  1
  Si  Si28  1  0.93735800  0.84128200  0.77097900  1
  Si  Si29  1  0.43216900  0.65663800  0.77011700  1
  Si  Si30  1  0.20078700  0.83525800  0.97300000  1
  Si  Si31  1  0.70094300  0.66421300  0.97295900  1
  O  O32  1  0.58738100  0.29437600  0.05170700  1
  O  O33  1  0.08605700  0.20650900  0.05177300  1
  O  O34  1  0.19863200  0.82778600  0.06309600  1
  O  O35  1  0.69944100  0.67153000  0.06315300  1
  O  O36  1  0.20836000  0.49488000  0.06911200  1
  O  O37  1  0.70597800  0.00524700  0.06865000  1
  O  O38  1  0.55119600  0.83133500  0.18457100  1
  O  O39  1  0.05354300  0.66934700  0.18360700  1
  O  O40  1  0.04753300  0.99015700  0.18952000  1
  O  O41  1  0.55020100  0.51066800  0.19099900  1
  O  O42  1  0.82778500  0.27214600  0.19951100  1
  O  O43  1  0.32907400  0.22752800  0.19402700  1
  O  O44  1  0.83862600  0.77332800  0.30467700  1
  O  O45  1  0.34544500  0.71885300  0.30622100  1
  O  O46  1  0.05751500  0.49457300  0.31031000  1
  O  O47  1  0.54608600  0.00920400  0.30826300  1
  O  O48  1  0.52513900  0.34376300  0.31693800  1
  O  O49  1  0.05953300  0.15762200  0.31555700  1
  O  O50  1  0.20260400  0.99117300  0.43312000  1
  O  O51  1  0.68377100  0.51445900  0.43067000  1
  O  O52  1  0.22612200  0.33749900  0.43659800  1
  O  O53  1  0.68628400  0.15562800  0.43804500  1
  O  O54  1  0.59849700  0.80137600  0.45075100  1
  O  O55  1  0.10783800  0.69082800  0.44393700  1
  O  O56  1  0.90050700  0.30168100  0.54896900  1
  O  O57  1  0.39065200  0.19027800  0.55591800  1
  O  O58  1  0.27318900  0.83905100  0.56256300  1
  O  O59  1  0.81239800  0.65546700  0.56126400  1
  O  O60  1  0.29917800  0.49043200  0.56580800  1
  O  O61  1  0.81757400  0.01544700  0.56874000  1
  O  O62  1  0.97459300  0.84240100  0.68185200  1
  O  O63  1  0.44197300  0.66100400  0.68279100  1
  O  O64  1  0.44586000  0.99495500  0.68703000  1
  O  O65  1  0.95511000  0.50954900  0.68860200  1
  O  O66  1  0.66396500  0.27460400  0.69953300  1
  O  O67  1  0.15780400  0.21754800  0.69697100  1
  O  O68  1  0.65128800  0.78020500  0.80137400  1
  O  O69  1  0.14903100  0.71818800  0.80517800  1
  O  O70  1  0.44496900  0.49529400  0.81132100  1
  O  O71  1  0.94150300  0.00494700  0.80984600  1
  O  O72  1  0.96422300  0.35356700  0.81611100  1
  O  O73  1  0.45859900  0.14551300  0.81788300  1
  O  O74  1  0.32231400  0.98166000  0.93533600  1
  O  O75  1  0.82308900  0.51785400  0.93534600  1
  O  O76  1  0.29026600  0.35025600  0.93766000  1
  O  O77  1  0.79089700  0.14895900  0.93750400  1
  O  O78  1  0.88960400  0.81246400  0.94597700  1
  O  O79  1  0.39060900  0.68767600  0.94609500  1
