# generated using pymatgen
data_LiVF5
_symmetry_space_group_name_H-M   'P 1'
_cell_length_a   10.05734300
_cell_length_b   5.22578000
_cell_length_c   6.64566273
_cell_angle_alpha   73.48450819
_cell_angle_beta   90.00000000
_cell_angle_gamma   90.00000000
_symmetry_Int_Tables_number   1
_chemical_formula_structural   LiVF5
_chemical_formula_sum   'Li4 V4 F20'
_cell_volume   334.86892248
_cell_formula_units_Z   4
loop_
 _symmetry_equiv_pos_site_id
 _symmetry_equiv_pos_as_xyz
  1  'x, y, z'
loop_
 _atom_site_type_symbol
 _atom_site_label
 _atom_site_symmetry_multiplicity
 _atom_site_fract_x
 _atom_site_fract_y
 _atom_site_fract_z
 _atom_site_occupancy
  Li  Li0  1  0.74346600  0.94498000  0.88426700  1
  Li  Li1  1  0.75653400  0.94498000  0.38426700  1
  Li  Li2  1  0.24346600  0.05502000  0.61573300  1
  Li  Li3  1  0.25653400  0.05502000  0.11573300  1
  V  V4  1  0.96884100  0.55433500  0.74386100  1
  V  V5  1  0.46884100  0.44566500  0.75613900  1
  V  V6  1  0.53115900  0.55433500  0.24386100  1
  V  V7  1  0.03115900  0.44566500  0.25613900  1
  F  F8  1  0.08427500  0.84334100  0.69510800  1
  F  F9  1  0.82426900  0.78295500  0.67510000  1
  F  F10  1  0.36507600  0.75203400  0.68905400  1
  F  F11  1  0.59171300  0.60289600  0.90318700  1
  F  F12  1  0.41572500  0.84334100  0.19510800  1
  F  F13  1  0.67573100  0.78295500  0.17510000  1
  F  F14  1  0.13492400  0.75203400  0.18905400  1
  F  F15  1  0.58895300  0.62843600  0.52116900  1
  F  F16  1  0.08895300  0.37156400  0.97883100  1
  F  F17  1  0.90828700  0.60289600  0.40318700  1
  F  F18  1  0.09171300  0.39710400  0.59681300  1
  F  F19  1  0.91104700  0.62843600  0.02116900  1
  F  F20  1  0.41104700  0.37156400  0.47883100  1
  F  F21  1  0.86507600  0.24796600  0.81094600  1
  F  F22  1  0.32426900  0.21704500  0.82490000  1
  F  F23  1  0.58427500  0.15665900  0.80489200  1
  F  F24  1  0.40828700  0.39710400  0.09681300  1
  F  F25  1  0.63492400  0.24796600  0.31094600  1
  F  F26  1  0.17573100  0.21704500  0.32490000  1
  F  F27  1  0.91572500  0.15665900  0.30489200  1
