# generated using pymatgen
data_Li3V2P4(HO8)2
_symmetry_space_group_name_H-M   'P 1'
_cell_length_a   9.43296665
_cell_length_b   9.43360937
_cell_length_c   7.87551407
_cell_angle_alpha   79.00815359
_cell_angle_beta   78.82942214
_cell_angle_gamma   117.80308879
_symmetry_Int_Tables_number   1
_chemical_formula_structural   Li3V2P4(HO8)2
_chemical_formula_sum   'Li6 V4 P8 H4 O32'
_cell_volume   575.39397913
_cell_formula_units_Z   2
loop_
 _symmetry_equiv_pos_site_id
 _symmetry_equiv_pos_as_xyz
  1  'x, y, z'
loop_
 _atom_site_type_symbol
 _atom_site_label
 _atom_site_symmetry_multiplicity
 _atom_site_fract_x
 _atom_site_fract_y
 _atom_site_fract_z
 _atom_site_occupancy
  Li  Li0  1  0.46279899  0.09380339  0.35324315  1
  Li  Li1  1  0.04627300  0.41319582  0.65374757  1
  Li  Li2  1  0.33661967  0.20784936  0.85205737  1
  Li  Li3  1  0.65662950  0.79162431  0.15555167  1
  Li  Li4  1  0.95651515  0.59311174  0.34541291  1
  Li  Li5  1  0.83843273  0.70267307  0.84405794  1
  V  V6  1  0.25202898  0.25442617  0.48819926  1
  V  V7  1  0.50070344  -0.00013407  0.99735480  1
  V  V8  1  0.99918540  0.49356794  0.00381379  1
  V  V9  1  0.74595834  0.75194493  0.50067179  1
  P  P10  1  0.25925055  0.60672817  0.26931814  1
  P  P11  1  0.75744214  0.10888023  0.26542819  1
  P  P12  1  0.64505256  0.49508821  0.22969539  1
  P  P13  1  0.14352671  0.99226325  0.23304140  1
  P  P14  1  0.35660032  0.50860018  0.76021953  1
  P  P15  1  0.85637583  0.01395912  0.76437927  1
  P  P16  1  0.74043747  0.39277006  0.73355002  1
  P  P17  1  0.23970282  0.89445387  0.73972474  1
  H  H18  1  0.74679573  0.25280845  0.49716570  1
  H  H19  1  0.25813409  0.76485492  0.51690656  1
  H  H20  1  0.48135512  0.49015430  0.98235179  1
  H  H21  1  0.98843327  0.99900339  0.99307188  1
  O  O22  1  0.12317991  0.06159765  0.05468620  1
  O  O23  1  0.16524458  0.11300673  0.35472616  1
  O  O24  1  0.01420617  0.18989687  0.64502367  1
  O  O25  1  0.23954494  0.06027282  0.68751385  1
  O  O26  1  0.62555572  0.08176301  0.15374662  1
  O  O27  1  0.13283352  0.58244209  0.16442951  1
  O  O28  1  0.27857801  0.45052458  0.31870311  1
  O  O29  1  0.48603864  0.31496385  0.34989275  1
  O  O30  1  0.68028173  0.13754080  0.43689713  1
  O  O31  1  0.18611243  0.62971687  0.44764652  1
  O  O32  1  0.33069442  0.37674371  0.65239881  1
  O  O33  1  0.19456672  0.51285481  0.80800289  1
  O  O34  1  0.69795671  0.02631524  0.82132012  1
  O  O35  1  0.62438353  0.56773722  0.05089056  1
  O  O36  1  0.93046765  0.25997368  0.14057146  1
  O  O37  1  0.43684749  0.76471128  0.14510761  1
  O  O38  1  0.56111606  0.23523399  0.85132914  1
  O  O39  1  0.06350758  0.73742606  0.85161480  1
  O  O40  1  0.37863727  0.42556269  0.93714495  1
  O  O41  1  0.80704277  0.48726552  0.19083368  1
  O  O42  1  0.30950031  0.98834508  0.19095876  1
  O  O43  1  0.66091216  0.61796249  0.33968240  1
  O  O44  1  0.81319209  0.37077728  0.55202765  1
  O  O45  1  0.31502145  0.87590743  0.55658779  1
  O  O46  1  0.51151788  0.68134462  0.64410310  1
  O  O47  1  0.73679926  0.55642183  0.68789761  1
  O  O48  1  0.86619402  0.41049247  0.83852319  1
  O  O49  1  0.35982582  0.91438470  0.85785026  1
  O  O50  1  0.76014442  0.94510899  0.30942303  1
  O  O51  1  0.98808502  0.81631685  0.35367011  1
  O  O52  1  0.83359437  0.88409074  0.66516093  1
  O  O53  1  0.87950254  0.93866024  0.94653177  1
