# generated using pymatgen
data_Li3V3P8O29
_symmetry_space_group_name_H-M   'P 1'
_cell_length_a   9.74019400
_cell_length_b   9.76778820
_cell_length_c   14.34304848
_cell_angle_alpha   90.02963858
_cell_angle_beta   90.24242940
_cell_angle_gamma   119.73528112
_symmetry_Int_Tables_number   1
_chemical_formula_structural   Li3V3P8O29
_chemical_formula_sum   'Li6 V6 P16 O58'
_cell_volume   1184.90186848
_cell_formula_units_Z   2
loop_
 _symmetry_equiv_pos_site_id
 _symmetry_equiv_pos_as_xyz
  1  'x, y, z'
loop_
 _atom_site_type_symbol
 _atom_site_label
 _atom_site_symmetry_multiplicity
 _atom_site_fract_x
 _atom_site_fract_y
 _atom_site_fract_z
 _atom_site_occupancy
  Li  Li0  1  0.78414300  0.07859900  0.45016300  1
  Li  Li1  1  0.77031700  0.67318100  0.94077500  1
  Li  Li2  1  0.91201100  0.68635600  0.44405000  1
  Li  Li3  1  0.22351200  0.91777200  0.56148600  1
  Li  Li4  1  0.68208200  0.91215800  0.05316700  1
  Li  Li5  1  0.07899900  0.05774600  0.00181500  1
  V  V6  1  0.99713700  0.43041300  0.75439100  1
  V  V7  1  0.00365500  0.56314300  0.24037600  1
  V  V8  1  0.42938900  0.43224800  0.25425300  1
  V  V9  1  0.56080000  0.56174300  0.74388600  1
  V  V10  1  0.43487600  0.00608600  0.75738500  1
  V  V11  1  0.56156600  0.99960800  0.24838300  1
  P  P12  1  0.30292400  0.08613100  0.16377300  1
  P  P13  1  0.30951300  0.22451000  0.65568500  1
  P  P14  1  0.77045300  0.08938300  0.66302400  1
  P  P15  1  0.66941200  0.33870300  0.86907300  1
  P  P16  1  0.67147400  0.33558700  0.36476900  1
  P  P17  1  0.91575800  0.21759600  0.15594800  1
  P  P18  1  0.08356900  0.31307300  0.33972200  1
  P  P19  1  0.76626500  0.68239700  0.15864700  1
  P  P20  1  0.22678300  0.30824300  0.83837900  1
  P  P21  1  0.91038400  0.67910000  0.65826500  1
  P  P22  1  0.08212800  0.77746000  0.83895200  1
  P  P23  1  0.32685200  0.67077400  0.63476500  1
  P  P24  1  0.33940900  0.66749600  0.13264100  1
  P  P25  1  0.22565600  0.90516500  0.34196400  1
  P  P26  1  0.68632800  0.77374500  0.33920800  1
  P  P27  1  0.68408000  0.90658200  0.83979900  1
  O  O28  1  0.23712100  0.97742000  0.43441300  1
  O  O29  1  0.33934200  0.08154200  0.66494300  1
  O  O30  1  0.21466100  0.21670800  0.92250300  1
  O  O31  1  0.34267000  0.26001700  0.17280900  1
  O  O32  1  0.46095800  0.08075300  0.17363100  1
  O  O33  1  0.51669200  0.18879600  0.82715200  1
  O  O34  1  0.61846700  0.09770800  0.68484500  1
  O  O35  1  0.76351900  0.98018300  0.92963400  1
  O  O36  1  0.73894400  0.08221700  0.16389800  1
  O  O37  1  0.52402300  0.33973500  0.32327200  1
  O  O38  1  0.47287600  0.37850800  0.67654200  1
  O  O39  1  0.66244400  0.18123200  0.32100800  1
  O  O40  1  0.67338000  0.34209600  0.97250400  1
  O  O41  1  0.67722200  0.33373300  0.46803700  1
  O  O42  1  0.81238300  0.32979000  0.82440100  1
  O  O43  1  0.61211900  0.52653700  0.17532100  1
  O  O44  1  0.67419900  0.48921300  0.82675600  1
  O  O45  1  0.91585000  0.25715200  0.67200000  1
  O  O46  1  0.99783400  0.20238700  0.24987500  1
  O  O47  1  0.99381300  0.23437300  0.42445800  1
  O  O48  1  0.99018100  0.19436800  0.07250700  1
  O  O49  1  0.92001300  0.38020200  0.16696500  1
  O  O50  1  0.81975900  0.47919500  0.32041000  1
  O  O51  1  0.09144000  0.34926200  0.83130300  1
  O  O52  1  0.90225700  0.52052800  0.67814300  1
  O  O53  1  0.74114500  0.65561300  0.66595600  1
  O  O54  1  0.20374200  0.20465100  0.74630700  1
  O  O55  1  0.23315900  0.22779700  0.56785200  1
  O  O56  1  0.77816700  0.77007500  0.42088400  1
  O  O57  1  0.25539900  0.34271200  0.33490200  1
  O  O58  1  0.09258900  0.47387100  0.31708000  1
  O  O59  1  0.90944700  0.65374000  0.16640000  1
  O  O60  1  0.18035300  0.52982300  0.68218000  1
  O  O61  1  0.07543500  0.61645500  0.83299200  1
  O  O62  1  0.99396400  0.79779400  0.91744400  1
  O  O63  1  0.99201600  0.75290900  0.56849400  1
  O  O64  1  0.01015100  0.79861500  0.74082200  1
  O  O65  1  0.07874100  0.73767400  0.33267900  1
  O  O66  1  0.33193500  0.51959300  0.17920100  1
  O  O67  1  0.38671200  0.46330000  0.82577900  1
  O  O68  1  0.19009900  0.67212200  0.17369700  1
  O  O69  1  0.35001600  0.67532800  0.02958500  1
  O  O70  1  0.32564600  0.67023100  0.53149300  1
  O  O71  1  0.33541000  0.82444600  0.67502900  1
  O  O72  1  0.52583000  0.62002000  0.32491500  1
  O  O73  1  0.47244800  0.66036300  0.67911700  1
  O  O74  1  0.25699900  0.91360200  0.83474300  1
  O  O75  1  0.20754400  0.00503700  0.25879900  1
  O  O76  1  0.20630300  0.00701100  0.08063700  1
  O  O77  1  0.37886700  0.89831600  0.31747800  1
  O  O78  1  0.49258800  0.81639100  0.17469000  1
  O  O79  1  0.52547600  0.90751400  0.82589200  1
  O  O80  1  0.65515500  0.73544700  0.83391600  1
  O  O81  1  0.76674700  0.76183700  0.06893200  1
  O  O82  1  0.78646100  0.79810700  0.24376500  1
  O  O83  1  0.66111200  0.91940700  0.33916300  1
  O  O84  1  0.76102500  0.01083100  0.57307900  1
  O  O85  1  0.79026900  0.99417600  0.75013300  1
