# generated using pymatgen
data_LiNi4(PO4)3
_symmetry_space_group_name_H-M   'P 1'
_cell_length_a   7.40035500
_cell_length_b   7.77383124
_cell_length_c   9.57749459
_cell_angle_alpha   110.03718869
_cell_angle_beta   111.56999472
_cell_angle_gamma   94.85955425
_symmetry_Int_Tables_number   1
_chemical_formula_structural   LiNi4(PO4)3
_chemical_formula_sum   'Li2 Ni8 P6 O24'
_cell_volume   467.17828882
_cell_formula_units_Z   2
loop_
 _symmetry_equiv_pos_site_id
 _symmetry_equiv_pos_as_xyz
  1  'x, y, z'
loop_
 _atom_site_type_symbol
 _atom_site_label
 _atom_site_symmetry_multiplicity
 _atom_site_fract_x
 _atom_site_fract_y
 _atom_site_fract_z
 _atom_site_occupancy
  Li  Li0  1  0.36041500  0.18223300  0.38834100  1
  Li  Li1  1  0.63958500  0.81776700  0.61165900  1
  Ni  Ni2  1  0.01284100  0.79239300  0.44496900  1
  Ni  Ni3  1  0.27809600  0.90409100  0.92187900  1
  Ni  Ni4  1  0.28586900  0.53694100  0.93424900  1
  Ni  Ni5  1  0.28910800  0.60156700  0.29153100  1
  Ni  Ni6  1  0.71089200  0.39843300  0.70846900  1
  Ni  Ni7  1  0.71413100  0.46305900  0.06575100  1
  Ni  Ni8  1  0.72190400  0.09590900  0.07812100  1
  Ni  Ni9  1  0.98715900  0.20760700  0.55503100  1
  P  P10  1  0.02293200  0.24597500  0.93507700  1
  P  P11  1  0.31124600  0.55087900  0.60884400  1
  P  P12  1  0.40425900  0.13493400  0.74753100  1
  P  P13  1  0.59574100  0.86506600  0.25246900  1
  P  P14  1  0.68875400  0.44912100  0.39115600  1
  P  P15  1  0.97706800  0.75402500  0.06492300  1
  O  O16  1  0.14225800  0.74777000  0.00083600  1
  O  O17  1  0.08661900  0.06245400  0.90847500  1
  O  O18  1  0.17861400  0.04883800  0.62704100  1
  O  O19  1  0.25780400  0.63251000  0.75887700  1
  O  O20  1  0.19726700  0.33947800  0.50635600  1
  O  O21  1  0.05276300  0.72238500  0.22999000  1
  O  O22  1  0.43268600  0.33803900  0.87153800  1
  O  O23  1  0.24503800  0.66900100  0.50226200  1
  O  O24  1  0.47114100  0.01339100  0.85049000  1
  O  O25  1  0.19751500  0.42180000  0.05890400  1
  O  O26  1  0.53809600  0.57841200  0.66230200  1
  O  O27  1  0.53205300  0.14336700  0.65348600  1
  O  O28  1  0.46794700  0.85663300  0.34651400  1
  O  O29  1  0.46190400  0.42158800  0.33769800  1
  O  O30  1  0.80248500  0.57820000  0.94109600  1
  O  O31  1  0.52885900  0.98660900  0.14951000  1
  O  O32  1  0.75496200  0.33099900  0.49773800  1
  O  O33  1  0.56731400  0.66196100  0.12846200  1
  O  O34  1  0.94723700  0.27761500  0.77001000  1
  O  O35  1  0.80273300  0.66052200  0.49364400  1
  O  O36  1  0.74219600  0.36749000  0.24112300  1
  O  O37  1  0.82138600  0.95116200  0.37295900  1
  O  O38  1  0.91338100  0.93754600  0.09152500  1
  O  O39  1  0.85774200  0.25223000  0.99916400  1
