# generated using pymatgen
data_LiMnPO4
_symmetry_space_group_name_H-M   'P 1'
_cell_length_a   5.14234702
_cell_length_b   10.37908701
_cell_length_c   6.97333601
_cell_angle_alpha   89.99960376
_cell_angle_beta   89.99279414
_cell_angle_gamma   89.99389988
_symmetry_Int_Tables_number   1
_chemical_formula_structural   LiMnPO4
_chemical_formula_sum   'Li4 Mn4 P4 O16'
_cell_volume   372.18693163
_cell_formula_units_Z   4
loop_
 _symmetry_equiv_pos_site_id
 _symmetry_equiv_pos_as_xyz
  1  'x, y, z'
loop_
 _atom_site_type_symbol
 _atom_site_label
 _atom_site_symmetry_multiplicity
 _atom_site_fract_x
 _atom_site_fract_y
 _atom_site_fract_z
 _atom_site_occupancy
  Li  Li0  1  0.24541800  0.15066300  0.49626000  1
  Li  Li1  1  0.74528700  0.34938100  0.99626600  1
  Li  Li2  1  0.24536400  0.65063600  0.00379800  1
  Li  Li3  1  0.74536900  0.84939100  0.50377200  1
  Mn  Mn4  1  0.24387800  0.65709800  0.50283300  1
  Mn  Mn5  1  0.74372900  0.84291900  0.00277600  1
  Mn  Mn6  1  0.24326100  0.15685800  0.99707900  1
  Mn  Mn7  1  0.74399500  0.34311500  0.49711700  1
  P  P8  1  0.75026300  0.09715700  0.74725300  1
  P  P9  1  0.25043300  0.40286500  0.24724400  1
  P  P10  1  0.75044500  0.59712000  0.75274900  1
  P  P11  1  0.25043100  0.90284100  0.25274700  1
  O  O12  1  0.19762200  0.05019200  0.24846600  1
  O  O13  1  0.69763700  0.44978900  0.74849300  1
  O  O14  1  0.19761900  0.55021500  0.25152400  1
  O  O15  1  0.69756200  0.94979600  0.75155100  1
  O  O16  1  0.04826500  0.12494600  0.74016800  1
  O  O17  1  0.54838700  0.37502900  0.24019100  1
  O  O18  1  0.04838800  0.62497200  0.75980700  1
  O  O19  1  0.54838300  0.87500700  0.25982800  1
  O  O20  1  0.61987600  0.15704400  0.56732900  1
  O  O21  1  0.11986600  0.34296500  0.06736400  1
  O  O22  1  0.61992400  0.65698500  0.93271400  1
  O  O23  1  0.11987900  0.84299100  0.43266700  1
  O  O24  1  0.64033300  0.16169900  0.93280200  1
  O  O25  1  0.14061300  0.33834000  0.43283200  1
  O  O26  1  0.64059600  0.66167100  0.56719500  1
  O  O27  1  0.14057700  0.83831600  0.06717500  1
