# generated using pymatgen
data_Li2MnV(P2O7)2
_symmetry_space_group_name_H-M   'P 1'
_cell_length_a   7.19537858
_cell_length_b   8.34301042
_cell_length_c   9.70494782
_cell_angle_alpha   90.49279938
_cell_angle_beta   111.13304993
_cell_angle_gamma   91.37701256
_symmetry_Int_Tables_number   1
_chemical_formula_structural   Li2MnV(P2O7)2
_chemical_formula_sum   'Li4 Mn2 V2 P8 O28'
_cell_volume   543.16654846
_cell_formula_units_Z   2
loop_
 _symmetry_equiv_pos_site_id
 _symmetry_equiv_pos_as_xyz
  1  'x, y, z'
loop_
 _atom_site_type_symbol
 _atom_site_label
 _atom_site_symmetry_multiplicity
 _atom_site_fract_x
 _atom_site_fract_y
 _atom_site_fract_z
 _atom_site_occupancy
  Li  Li0  1  0.67088200  0.85919400  0.74903300  1
  Li  Li1  1  0.67092400  0.85915500  0.24902000  1
  Li  Li2  1  0.32943300  0.35571300  0.25274800  1
  Li  Li3  1  0.32939600  0.35585900  0.75277700  1
  Mn  Mn4  1  0.27199400  0.99872100  0.24073900  1
  Mn  Mn5  1  0.27201600  0.99896700  0.74070300  1
  V  V6  1  0.72560800  0.49938500  0.25693100  1
  V  V7  1  0.72565700  0.49948100  0.75689700  1
  P  P8  1  0.52233100  0.17574200  0.56006600  1
  P  P9  1  0.52225700  0.17571100  0.06006100  1
  P  P10  1  0.09113100  0.78617600  0.43563400  1
  P  P11  1  0.09115000  0.78624200  0.93546900  1
  P  P12  1  0.91204000  0.28846100  0.56391200  1
  P  P13  1  0.91196100  0.28846900  0.06388000  1
  P  P14  1  0.48072500  0.68063700  0.44012300  1
  P  P15  1  0.48075900  0.68066500  0.94012600  1
  O  O16  1  0.84312900  0.32633000  0.89996700  1
  O  O17  1  0.84315900  0.32624500  0.40000400  1
  O  O18  1  0.88864600  0.69985700  0.87345000  1
  O  O19  1  0.88870700  0.69970600  0.37370700  1
  O  O20  1  0.47737500  0.03369800  0.64481700  1
  O  O21  1  0.47720900  0.03366600  0.14470900  1
  O  O22  1  0.50462700  0.33794300  0.62803700  1
  O  O23  1  0.50459800  0.33788400  0.12807600  1
  O  O24  1  0.60210500  0.67461800  0.60651200  1
  O  O25  1  0.60207900  0.67457100  0.10650200  1
  O  O26  1  0.91056100  0.43784900  0.65752100  1
  O  O27  1  0.91031200  0.43787000  0.15740600  1
  O  O28  1  0.75207500  0.15310700  0.58054800  1
  O  O29  1  0.75198700  0.15306000  0.08047200  1
  O  O30  1  0.24796000  0.65733300  0.42165200  1
  O  O31  1  0.24795100  0.65737600  0.92156200  1
  O  O32  1  0.09667000  0.93556200  0.34494600  1
  O  O33  1  0.09673900  0.93569100  0.84491600  1
  O  O34  1  0.39725700  0.17111700  0.39323300  1
  O  O35  1  0.39724600  0.17124100  0.89320500  1
  O  O36  1  0.50652100  0.84113300  0.37519700  1
  O  O37  1  0.50657300  0.84118200  0.87519300  1
  O  O38  1  0.51341100  0.53684800  0.35218700  1
  O  O39  1  0.51341900  0.53689700  0.85211900  1
  O  O40  1  0.11136700  0.20744100  0.12334800  1
  O  O41  1  0.11148900  0.20741000  0.62334300  1
  O  O42  1  0.14416700  0.82844900  0.09956300  1
  O  O43  1  0.14439900  0.82850200  0.59969600  1
