# generated using pymatgen
data_Li8Ni(O2F)2
_symmetry_space_group_name_H-M   'P 1'
_cell_length_a   5.49130600
_cell_length_b   5.50799538
_cell_length_c   10.76908426
_cell_angle_alpha   75.73432343
_cell_angle_beta   75.33464279
_cell_angle_gamma   60.27755607
_symmetry_Int_Tables_number   1
_chemical_formula_structural   Li8Ni(O2F)2
_chemical_formula_sum   'Li16 Ni2 O8 F4'
_cell_volume   270.80605819
_cell_formula_units_Z   2
loop_
 _symmetry_equiv_pos_site_id
 _symmetry_equiv_pos_as_xyz
  1  'x, y, z'
loop_
 _atom_site_type_symbol
 _atom_site_label
 _atom_site_symmetry_multiplicity
 _atom_site_fract_x
 _atom_site_fract_y
 _atom_site_fract_z
 _atom_site_occupancy
  Li  Li0  1  0.11286800  0.77937500  0.67503200  1
  Li  Li1  1  0.20347800  0.57438600  0.31577000  1
  Li  Li2  1  0.06723200  0.41145700  0.81732400  1
  Li  Li3  1  0.18229900  0.23289200  0.48867400  1
  Li  Li4  1  0.28260600  0.41610000  0.00505700  1
  Li  Li5  1  0.27989200  0.94781100  0.16504300  1
  Li  Li6  1  0.43184700  0.09147800  0.66621900  1
  Li  Li7  1  0.59054300  0.30722300  0.18120500  1
  Li  Li8  1  0.40945700  0.69277700  0.81879500  1
  Li  Li9  1  0.56815300  0.90852200  0.33378100  1
  Li  Li10  1  0.72010800  0.05218900  0.83495700  1
  Li  Li11  1  0.71739400  0.58390000  0.99494300  1
  Li  Li12  1  0.81770100  0.76710800  0.51132600  1
  Li  Li13  1  0.79652200  0.42561400  0.68423000  1
  Li  Li14  1  0.93276800  0.58854300  0.18267600  1
  Li  Li15  1  0.88713200  0.22062500  0.32496800  1
  Ni  Ni16  1  0.00000000  0.00000000  0.00000000  1
  Ni  Ni17  1  0.50000000  0.50000000  0.50000000  1
  O  O18  1  0.03700200  0.72028600  0.88272500  1
  O  O19  1  0.26974100  0.64725000  0.12061600  1
  O  O20  1  0.14043700  0.46245500  0.61832700  1
  O  O21  1  0.52680700  0.23771800  0.37933800  1
  O  O22  1  0.47319300  0.76228200  0.62066200  1
  O  O23  1  0.85956300  0.53754500  0.38167300  1
  O  O24  1  0.73025900  0.35275000  0.87938400  1
  O  O25  1  0.96299800  0.27971400  0.11727500  1
  F  F26  1  0.37640700  0.03695600  0.86065700  1
  F  F27  1  0.21993600  0.88066600  0.36485900  1
  F  F28  1  0.78006400  0.11933400  0.63514100  1
  F  F29  1  0.62359300  0.96304400  0.13934300  1
