# generated using pymatgen
data_Li5Mn6(BO3)6
_symmetry_space_group_name_H-M   'P 1'
_cell_length_a   8.21677900
_cell_length_b   8.85431879
_cell_length_c   12.65352632
_cell_angle_alpha   92.56794293
_cell_angle_beta   108.59848066
_cell_angle_gamma   117.63090741
_symmetry_Int_Tables_number   1
_chemical_formula_structural   Li5Mn6(BO3)6
_chemical_formula_sum   'Li10 Mn12 B12 O36'
_cell_volume   752.37574507
_cell_formula_units_Z   2
loop_
 _symmetry_equiv_pos_site_id
 _symmetry_equiv_pos_as_xyz
  1  'x, y, z'
loop_
 _atom_site_type_symbol
 _atom_site_label
 _atom_site_symmetry_multiplicity
 _atom_site_fract_x
 _atom_site_fract_y
 _atom_site_fract_z
 _atom_site_occupancy
  Li  Li0  1  0.29880600  0.59386200  0.30898500  1
  Li  Li1  1  0.53350600  0.83729100  0.55389800  1
  Li  Li2  1  0.92206200  0.89971800  0.19696400  1
  Li  Li3  1  0.77779500  0.07733400  0.80284000  1
  Li  Li4  1  0.67610400  0.39154500  0.37454700  1
  Li  Li5  1  0.42812100  0.13524400  0.12307100  1
  Li  Li6  1  0.16751000  0.88465800  0.86764700  1
  Li  Li7  1  0.91237900  0.63940000  0.61822600  1
  Li  Li8  1  0.66503000  0.64684100  0.95026300  1
  Li  Li9  1  0.41905500  0.40846700  0.70276600  1
  Mn  Mn10  1  0.78686200  0.80280000  0.40269500  1
  Mn  Mn11  1  0.50347300  0.52172600  0.15962600  1
  Mn  Mn12  1  0.10257000  0.72029700  0.09031700  1
  Mn  Mn13  1  0.34485300  0.97719800  0.34141700  1
  Mn  Mn14  1  0.01779600  0.03287900  0.65720900  1
  Mn  Mn15  1  0.24757300  0.27189100  0.91524200  1
  Mn  Mn16  1  0.90399300  0.24840000  0.25052500  1
  Mn  Mn17  1  0.13226500  0.47732800  0.50106700  1
  Mn  Mn18  1  0.64402300  0.00114500  0.00136100  1
  Mn  Mn19  1  0.37566600  0.74008000  0.75097500  1
  Mn  Mn20  1  0.85589000  0.46838300  0.84355700  1
  Mn  Mn21  1  0.57821500  0.22876500  0.58720000  1
  B  B22  1  0.51077800  0.51927100  0.50111300  1
  B  B23  1  0.55486600  0.88134700  0.20949700  1
  B  B24  1  0.28957100  0.62442600  0.95449300  1
  B  B25  1  0.19589300  0.86047500  0.54171100  1
  B  B26  1  0.03459300  0.37346100  0.71189100  1
  B  B27  1  0.96254900  0.62593000  0.29712200  1
  B  B28  1  0.69934000  0.37421600  0.03602400  1
  B  B29  1  0.78446400  0.12292300  0.45417300  1
  B  B30  1  0.26368000  0.25039300  0.25110000  1
  B  B31  1  0.99819200  0.98419400  0.99731300  1
  B  B32  1  0.75057100  0.74806700  0.75023300  1
  B  B33  1  0.45648800  0.13363900  0.79508500  1
  O  O34  1  0.71378100  0.96090300  0.17652800  1
  O  O35  1  0.26634800  0.49197700  0.01053000  1
  O  O36  1  0.53844100  0.74803200  0.27145400  1
  O  O37  1  0.75230500  0.96944800  0.49708300  1
  O  O38  1  0.17530000  0.35188700  0.23743500  1
  O  O39  1  0.39322000  0.59653600  0.47167700  1
  O  O40  1  0.63310300  0.82563800  0.71726400  1
  O  O41  1  0.40863900  0.92532400  0.18464100  1
  O  O42  1  0.45381800  0.71584200  0.92656200  1
  O  O43  1  0.12249100  0.70147700  0.26346900  1
  O  O44  1  0.19454400  0.45290400  0.67951300  1
  O  O45  1  0.36521100  0.95251200  0.51886200  1
  O  O46  1  0.94163400  0.20459900  0.42209200  1
  O  O47  1  0.85376800  0.45945400  0.99659400  1
  O  O48  1  0.16421100  0.71776100  0.58990700  1
  O  O49  1  0.99581900  0.22569700  0.75624700  1
  O  O50  1  0.68291000  0.23750600  0.08865000  1
  O  O51  1  0.92204500  0.48084700  0.34226700  1
  O  O52  1  0.42208700  0.98625200  0.83804800  1
  O  O53  1  0.93442100  0.84204500  0.04817700  1
  O  O54  1  0.88138300  0.05724300  0.95689600  1
  O  O55  1  0.13815100  0.66986900  0.92363500  1
  O  O56  1  0.83919500  0.70013500  0.28170800  1
  O  O57  1  0.90750400  0.44337000  0.70074700  1
  O  O58  1  0.05500700  0.91425200  0.51995400  1
  O  O59  1  0.56847500  0.43536700  0.02242200  1
  O  O60  1  0.65278000  0.18331000  0.44618100  1
  O  O61  1  0.44246200  0.31002700  0.23327600  1
  O  O62  1  0.67848400  0.57823100  0.47263800  1
  O  O63  1  0.92579300  0.81516000  0.73010000  1
  O  O64  1  0.63002700  0.22054200  0.77075300  1
  O  O65  1  0.18179200  0.09182100  0.28075500  1
  O  O66  1  0.46479400  0.39002500  0.56172300  1
  O  O67  1  0.69469700  0.60608700  0.80193500  1
  O  O68  1  0.32622300  0.19593300  0.77218900  1
  O  O69  1  0.18052600  0.05063500  0.98385700  1
