# generated using pymatgen
data_LiV2O3F
_symmetry_space_group_name_H-M   'P 1'
_cell_length_a   5.96929800
_cell_length_b   6.14769500
_cell_length_c   8.68551600
_cell_angle_alpha   90.00000000
_cell_angle_beta   90.00000000
_cell_angle_gamma   90.00000000
_symmetry_Int_Tables_number   1
_chemical_formula_structural   LiV2O3F
_chemical_formula_sum   'Li4 V8 O12 F4'
_cell_volume   318.73605869
_cell_formula_units_Z   4
loop_
 _symmetry_equiv_pos_site_id
 _symmetry_equiv_pos_as_xyz
  1  'x, y, z'
loop_
 _atom_site_type_symbol
 _atom_site_label
 _atom_site_symmetry_multiplicity
 _atom_site_fract_x
 _atom_site_fract_y
 _atom_site_fract_z
 _atom_site_occupancy
  Li  Li0  1  0.02170600  0.75000000  0.64282800  1
  Li  Li1  1  0.52170600  0.75000000  0.85717200  1
  Li  Li2  1  0.47829400  0.25000000  0.14282800  1
  Li  Li3  1  0.97829400  0.25000000  0.35717200  1
  V  V4  1  0.74337400  0.25000000  0.74049600  1
  V  V5  1  0.24337400  0.25000000  0.75950400  1
  V  V6  1  0.00000000  0.00000000  0.00000000  1
  V  V7  1  0.00000000  0.50000000  0.00000000  1
  V  V8  1  0.75662600  0.75000000  0.24049600  1
  V  V9  1  0.25662600  0.75000000  0.25950400  1
  V  V10  1  0.50000000  0.00000000  0.50000000  1
  V  V11  1  0.50000000  0.50000000  0.50000000  1
  O  O12  1  0.49163500  0.47053000  0.73112800  1
  O  O13  1  0.49163500  0.02947000  0.73112800  1
  O  O14  1  0.99163500  0.47053000  0.76887200  1
  O  O15  1  0.99163500  0.02947000  0.76887200  1
  O  O16  1  0.21642600  0.25000000  0.99694600  1
  O  O17  1  0.78357400  0.75000000  0.00305400  1
  O  O18  1  0.00836500  0.97053000  0.23112800  1
  O  O19  1  0.00836500  0.52947000  0.23112800  1
  O  O20  1  0.50836500  0.97053000  0.26887200  1
  O  O21  1  0.50836500  0.52947000  0.26887200  1
  O  O22  1  0.28357400  0.75000000  0.49694600  1
  O  O23  1  0.71642600  0.25000000  0.50305400  1
  F  F24  1  0.75336400  0.25000000  0.99732600  1
  F  F25  1  0.24663600  0.75000000  0.00267400  1
  F  F26  1  0.74663600  0.75000000  0.49732600  1
  F  F27  1  0.25336400  0.25000000  0.50267400  1
