# generated using pymatgen
data_Li3V4(OF3)3
_symmetry_space_group_name_H-M   'P 1'
_cell_length_a   5.18967900
_cell_length_b   5.54213370
_cell_length_c   17.28372055
_cell_angle_alpha   88.97683212
_cell_angle_beta   97.46133533
_cell_angle_gamma   117.48653275
_symmetry_Int_Tables_number   1
_chemical_formula_structural   Li3V4(OF3)3
_chemical_formula_sum   'Li6 V8 O6 F18'
_cell_volume   436.76351159
_cell_formula_units_Z   2
loop_
 _symmetry_equiv_pos_site_id
 _symmetry_equiv_pos_as_xyz
  1  'x, y, z'
loop_
 _atom_site_type_symbol
 _atom_site_label
 _atom_site_symmetry_multiplicity
 _atom_site_fract_x
 _atom_site_fract_y
 _atom_site_fract_z
 _atom_site_occupancy
  Li  Li0  1  0.93527100  0.55217100  0.31677100  1
  Li  Li1  1  0.63591000  0.32509700  0.94115100  1
  Li  Li2  1  0.32751700  0.10231300  0.54832400  1
  Li  Li3  1  0.80397100  0.82847200  0.79917600  1
  Li  Li4  1  0.68722700  0.91862200  0.44996100  1
  Li  Li5  1  0.43332900  0.82616100  0.07232500  1
  V  V6  1  0.97906200  0.01801800  0.00293700  1
  V  V7  1  0.74790600  0.37913800  0.12820700  1
  V  V8  1  0.53378500  0.24927700  0.75058500  1
  V  V9  1  0.50391100  0.72602600  0.24722600  1
  V  V10  1  0.75840100  0.89490800  0.63207100  1
  V  V11  1  0.24846600  0.11701300  0.38073500  1
  V  V12  1  0.03617900  0.51512700  0.49492300  1
  V  V13  1  0.21418100  0.60919400  0.87038600  1
  O  O14  1  0.78878200  0.20470300  0.03331700  1
  O  O15  1  0.70178200  0.03917800  0.72023100  1
  O  O16  1  0.68750700  0.53450500  0.21645700  1
  O  O17  1  0.80936600  0.41904800  0.84665100  1
  O  O18  1  0.17166500  0.27171800  0.46721400  1
  O  O19  1  0.27499900  0.83599200  0.44188900  1
  F  F20  1  0.72718400  0.05166000  0.18746700  1
  F  F21  1  0.74288500  0.19236500  0.55811000  1
  F  F22  1  0.71940800  0.68041200  0.05630400  1
  F  F23  1  0.70357900  0.35122900  0.39911900  1
  F  F24  1  0.83179200  0.73878500  0.53238900  1
  F  F25  1  0.80030200  0.87049400  0.34863300  1
  F  F26  1  0.31169400  0.13224500  0.09300000  1
  F  F27  1  0.77420000  0.58803700  0.69303500  1
  F  F28  1  0.22660300  0.42086500  0.30832600  1
  F  F29  1  0.67042600  0.84669400  0.90326800  1
  F  F30  1  0.20896300  0.10856400  0.65312300  1
  F  F31  1  0.19130400  0.59951100  0.14815000  1
  F  F32  1  0.34451700  0.48425800  0.78257300  1
  F  F33  1  0.33170800  0.67804700  0.59276000  1
  F  F34  1  0.29291100  0.92670200  0.28551600  1
  F  F35  1  0.25508000  0.31322000  0.93786800  1
  F  F36  1  0.23805000  0.94073200  0.81589600  1
  F  F37  1  0.17197500  0.78200800  0.97147800  1
