# generated using pymatgen
data_LiMnPO4
_symmetry_space_group_name_H-M   'P 1'
_cell_length_a   4.81528600
_cell_length_b   7.43178100
_cell_length_c   18.23539427
_cell_angle_alpha   89.10107823
_cell_angle_beta   90.00000000
_cell_angle_gamma   90.00000000
_symmetry_Int_Tables_number   1
_chemical_formula_structural   LiMnPO4
_chemical_formula_sum   'Li8 Mn8 P8 O32'
_cell_volume   652.49425919
_cell_formula_units_Z   8
loop_
 _symmetry_equiv_pos_site_id
 _symmetry_equiv_pos_as_xyz
  1  'x, y, z'
loop_
 _atom_site_type_symbol
 _atom_site_label
 _atom_site_symmetry_multiplicity
 _atom_site_fract_x
 _atom_site_fract_y
 _atom_site_fract_z
 _atom_site_occupancy
  Li  Li0  1  0.76716800  0.14569500  0.77057600  1
  Li  Li1  1  0.73283200  0.14569500  0.27057600  1
  Li  Li2  1  0.22304700  0.33094000  0.51827300  1
  Li  Li3  1  0.27695300  0.33094000  0.01827300  1
  Li  Li4  1  0.72304700  0.66906000  0.98172700  1
  Li  Li5  1  0.77695300  0.66906000  0.48172700  1
  Li  Li6  1  0.26716800  0.85430500  0.72942400  1
  Li  Li7  1  0.23283200  0.85430500  0.22942400  1
  Mn  Mn8  1  0.75754000  0.02927400  0.59908900  1
  Mn  Mn9  1  0.74246000  0.02927400  0.09908900  1
  Mn  Mn10  1  0.32720100  0.47975800  0.83244500  1
  Mn  Mn11  1  0.17279900  0.47975800  0.33244500  1
  Mn  Mn12  1  0.82720100  0.52024200  0.66755500  1
  Mn  Mn13  1  0.67279900  0.52024200  0.16755500  1
  Mn  Mn14  1  0.25754000  0.97072600  0.90091100  1
  Mn  Mn15  1  0.24246000  0.97072600  0.40091100  1
  P  P16  1  0.32879300  0.24082400  0.67833400  1
  P  P17  1  0.17120700  0.24082400  0.17833400  1
  P  P18  1  0.71530800  0.25747300  0.93067600  1
  P  P19  1  0.78469200  0.25747300  0.43067600  1
  P  P20  1  0.21530800  0.74252700  0.56932400  1
  P  P21  1  0.28469200  0.74252700  0.06932400  1
  P  P22  1  0.82879300  0.75917600  0.82166600  1
  P  P23  1  0.67120700  0.75917600  0.32166600  1
  O  O24  1  0.45002800  0.07358100  0.71724800  1
  O  O25  1  0.04997200  0.07358100  0.21724800  1
  O  O26  1  0.61436600  0.17638100  0.00447700  1
  O  O27  1  0.57599200  0.15364600  0.86636700  1
  O  O28  1  0.43824100  0.23514400  0.59864900  1
  O  O29  1  0.00479800  0.24947500  0.68224200  1
  O  O30  1  0.88563400  0.17638100  0.50447700  1
  O  O31  1  0.92400800  0.15364600  0.36636700  1
  O  O32  1  0.06175900  0.23514400  0.09864900  1
  O  O33  1  0.49520200  0.24947500  0.18224200  1
  O  O34  1  0.03817000  0.25076500  0.92250500  1
  O  O35  1  0.46183000  0.25076500  0.42250500  1
  O  O36  1  0.44792600  0.41367900  0.71766800  1
  O  O37  1  0.05207400  0.41367900  0.21766800  1
  O  O38  1  0.59961900  0.45324900  0.92436500  1
  O  O39  1  0.90038100  0.45324900  0.42436500  1
  O  O40  1  0.09961900  0.54675100  0.57563500  1
  O  O41  1  0.40038100  0.54675100  0.07563500  1
  O  O42  1  0.94792600  0.58632100  0.78233200  1
  O  O43  1  0.55207400  0.58632100  0.28233200  1
  O  O44  1  0.53817000  0.74923500  0.57749500  1
  O  O45  1  0.96183000  0.74923500  0.07749500  1
  O  O46  1  0.50479800  0.75052500  0.81775800  1
  O  O47  1  0.93824100  0.76485600  0.90135100  1
  O  O48  1  0.07599200  0.84635400  0.63363300  1
  O  O49  1  0.11436600  0.82361900  0.49552300  1
  O  O50  1  0.99520200  0.75052500  0.31775800  1
  O  O51  1  0.56175900  0.76485600  0.40135100  1
  O  O52  1  0.42400800  0.84635400  0.13363300  1
  O  O53  1  0.38563400  0.82361900  0.99552300  1
  O  O54  1  0.95002800  0.92641900  0.78275200  1
  O  O55  1  0.54997200  0.92641900  0.28275200  1
