# generated using pymatgen
data_Li7Fe8(BO3)8
_symmetry_space_group_name_H-M   'P 1'
_cell_length_a   5.23065500
_cell_length_b   9.07743723
_cell_length_c   11.44599833
_cell_angle_alpha   112.36394928
_cell_angle_beta   102.92150033
_cell_angle_gamma   89.95164461
_symmetry_Int_Tables_number   1
_chemical_formula_structural   Li7Fe8(BO3)8
_chemical_formula_sum   'Li7 Fe8 B8 O24'
_cell_volume   487.71936653
_cell_formula_units_Z   1
loop_
 _symmetry_equiv_pos_site_id
 _symmetry_equiv_pos_as_xyz
  1  'x, y, z'
loop_
 _atom_site_type_symbol
 _atom_site_label
 _atom_site_symmetry_multiplicity
 _atom_site_fract_x
 _atom_site_fract_y
 _atom_site_fract_z
 _atom_site_occupancy
  Li  Li0  1  0.03319600  0.04084400  0.41544700  1
  Li  Li1  1  0.29511400  0.28312500  0.91210700  1
  Li  Li2  1  0.48666300  0.50692800  0.66443900  1
  Li  Li3  1  0.26943400  0.24961600  0.16842400  1
  Li  Li4  1  0.79180900  0.78059400  0.90569600  1
  Li  Li5  1  0.98403300  0.00351300  0.66379200  1
  Li  Li6  1  0.76718700  0.74681500  0.16626600  1
  Fe  Fe7  1  0.01316600  0.36281100  0.38180500  1
  Fe  Fe8  1  0.26518300  0.93647800  0.88034000  1
  Fe  Fe9  1  0.49373900  0.15484500  0.63536400  1
  Fe  Fe10  1  0.24972900  0.56578200  0.13235000  1
  Fe  Fe11  1  0.77118400  0.44092200  0.88464700  1
  Fe  Fe12  1  0.52085200  0.84402100  0.38548500  1
  Fe  Fe13  1  0.96424600  0.65361400  0.62436300  1
  Fe  Fe14  1  0.74500200  0.06318000  0.12915900  1
  B  B15  1  0.02788200  0.68863000  0.37428100  1
  B  B16  1  0.26950600  0.60139800  0.87688300  1
  B  B17  1  0.47726800  0.81701000  0.63418300  1
  B  B18  1  0.23669600  0.89624700  0.12584500  1
  B  B19  1  0.50931900  0.18234400  0.37742000  1
  B  B20  1  0.76904600  0.10318400  0.87667500  1
  B  B21  1  0.97533100  0.31083900  0.62229300  1
  B  B22  1  0.73130000  0.39773300  0.12818500  1
  O  O23  1  0.02589400  0.10573200  0.86339500  1
  O  O24  1  0.11125100  0.71221100  0.84740400  1
  O  O25  1  0.16976100  0.48927800  0.91472700  1
  O  O26  1  0.08834800  0.17197900  0.61475600  1
  O  O27  1  0.09422200  0.42043300  0.58373200  1
  O  O28  1  0.23322100  0.84347700  0.66564900  1
  O  O29  1  0.26070600  0.66168100  0.33640700  1
  O  O30  1  0.52668400  0.60141900  0.86341000  1
  O  O31  1  0.60489700  0.21168100  0.84622500  1
  O  O32  1  0.41670000  0.07384800  0.41832200  1
  O  O33  1  0.35357300  0.29815500  0.35797900  1
  O  O34  1  0.67326500  0.99449200  0.91952600  1
  O  O35  1  0.34015200  0.01749600  0.09712500  1
  O  O36  1  0.60038500  0.68537600  0.63923300  1
  O  O37  1  0.59633000  0.92605200  0.59875400  1
  O  O38  1  0.39874500  0.79109900  0.15983700  1
  O  O39  1  0.46238800  0.37498400  0.11051400  1
  O  O40  1  0.74162600  0.34501500  0.66269900  1
  O  O41  1  0.76416800  0.17638100  0.35147100  1
  O  O42  1  0.92694600  0.57929700  0.41664900  1
  O  O43  1  0.89513600  0.81832600  0.36806400  1
  O  O44  1  0.83860100  0.51257900  0.09573300  1
  O  O45  1  0.89743400  0.30020400  0.17701400  1
  O  O46  1  0.96665000  0.88104800  0.11644500  1
