# generated using pymatgen
data_LiMnPO4
_symmetry_space_group_name_H-M   'P 1'
_cell_length_a   4.82370800
_cell_length_b   10.30307200
_cell_length_c   6.48052300
_cell_angle_alpha   89.99996563
_cell_angle_beta   90.00005028
_cell_angle_gamma   89.99999444
_symmetry_Int_Tables_number   1
_chemical_formula_structural   LiMnPO4
_chemical_formula_sum   'Li4 Mn4 P4 O16'
_cell_volume   322.07558277
_cell_formula_units_Z   4
loop_
 _symmetry_equiv_pos_site_id
 _symmetry_equiv_pos_as_xyz
  1  'x, y, z'
loop_
 _atom_site_type_symbol
 _atom_site_label
 _atom_site_symmetry_multiplicity
 _atom_site_fract_x
 _atom_site_fract_y
 _atom_site_fract_z
 _atom_site_occupancy
  Li  Li0  1  0.50036700  0.21612000  0.75000000  1
  Li  Li1  1  0.00036700  0.28388000  0.25000000  1
  Li  Li2  1  0.99963300  0.71612000  0.75000000  1
  Li  Li3  1  0.49963300  0.78388000  0.25000000  1
  Mn  Mn4  1  0.99999900  0.99999900  0.49999800  1
  Mn  Mn5  1  0.50000100  0.50000000  0.00000200  1
  Mn  Mn6  1  0.99999900  0.00000000  0.00000100  1
  Mn  Mn7  1  0.50000000  0.50000000  0.50000000  1
  P  P8  1  0.42226800  0.09807800  0.24999900  1
  P  P9  1  0.92226800  0.40192300  0.74999900  1
  P  P10  1  0.07773200  0.59807700  0.25000100  1
  P  P11  1  0.57773200  0.90192300  0.75000100  1
  O  O12  1  0.70786000  0.04441200  0.75000400  1
  O  O13  1  0.20785900  0.45558800  0.25000500  1
  O  O14  1  0.79214100  0.54441200  0.74999500  1
  O  O15  1  0.29214000  0.95558800  0.24999600  1
  O  O16  1  0.74507100  0.09121500  0.24999400  1
  O  O17  1  0.24507100  0.40878600  0.74999300  1
  O  O18  1  0.75492900  0.59121500  0.25000700  1
  O  O19  1  0.25492900  0.90878500  0.75000600  1
  O  O20  1  0.30301200  0.16321100  0.05339800  1
  O  O21  1  0.30301700  0.16321400  0.44660000  1
  O  O22  1  0.80301200  0.33679000  0.55339700  1
  O  O23  1  0.80301800  0.33678700  0.94660100  1
  O  O24  1  0.19698300  0.66321400  0.05339900  1
  O  O25  1  0.19698700  0.66321100  0.44660200  1
  O  O26  1  0.69698200  0.83678600  0.55339900  1
  O  O27  1  0.69698800  0.83678900  0.94660200  1
