# generated using pymatgen
data_Li5Co2(SiO5)2
_symmetry_space_group_name_H-M   'P 1'
_cell_length_a   5.51249300
_cell_length_b   4.92931900
_cell_length_c   16.59887204
_cell_angle_alpha   73.07511508
_cell_angle_beta   90.00000000
_cell_angle_gamma   90.00000000
_symmetry_Int_Tables_number   1
_chemical_formula_structural   Li5Co2(SiO5)2
_chemical_formula_sum   'Li10 Co4 Si4 O20'
_cell_volume   431.50271407
_cell_formula_units_Z   2
loop_
 _symmetry_equiv_pos_site_id
 _symmetry_equiv_pos_as_xyz
  1  'x, y, z'
loop_
 _atom_site_type_symbol
 _atom_site_label
 _atom_site_symmetry_multiplicity
 _atom_site_fract_x
 _atom_site_fract_y
 _atom_site_fract_z
 _atom_site_occupancy
  Li  Li0  1  0.58047100  0.59297000  0.40740200  1
  Li  Li1  1  0.08298100  0.90349100  0.09480000  1
  Li  Li2  1  0.57447600  0.20620100  0.80298000  1
  Li  Li3  1  0.58904600  0.00622900  0.99586800  1
  Li  Li4  1  0.08850500  0.48865200  0.50708700  1
  Li  Li5  1  0.91701900  0.90349100  0.59480000  1
  Li  Li6  1  0.41952900  0.59297000  0.90740200  1
  Li  Li7  1  0.42552400  0.20620100  0.30298000  1
  Li  Li8  1  0.91149500  0.48865200  0.00708700  1
  Li  Li9  1  0.41095400  0.00622900  0.49586800  1
  Co  Co10  1  0.92159800  0.69988800  0.79911400  1
  Co  Co11  1  0.42627200  0.80210800  0.69690100  1
  Co  Co12  1  0.07840200  0.69988800  0.29911400  1
  Co  Co13  1  0.57372800  0.80210800  0.19690100  1
  Si  Si14  1  0.08503400  0.10438900  0.90425700  1
  Si  Si15  1  0.58669800  0.41696400  0.59576300  1
  Si  Si16  1  0.91496600  0.10438900  0.40425700  1
  Si  Si17  1  0.41330200  0.41696400  0.09576300  1
  O  O18  1  0.91032900  0.85931200  0.20505400  1
  O  O19  1  0.39764600  0.80383200  0.29603700  1
  O  O20  1  0.86370900  0.52272000  0.58839000  1
  O  O21  1  0.36791500  0.20209600  0.89925900  1
  O  O22  1  0.93798200  0.10921100  0.98790600  1
  O  O23  1  0.42506300  0.58670600  0.51472000  1
  O  O24  1  0.92485600  0.31288700  0.82259600  1
  O  O25  1  0.47394400  0.44269900  0.68798800  1
  O  O26  1  0.92995700  0.77642100  0.39040100  1
  O  O27  1  0.43183300  0.06637900  0.10632500  1
  O  O28  1  0.60235400  0.80383200  0.79603700  1
  O  O29  1  0.08967100  0.85931200  0.70505400  1
  O  O30  1  0.63208500  0.20209600  0.39925900  1
  O  O31  1  0.13629100  0.52272000  0.08839000  1
  O  O32  1  0.06201800  0.10921100  0.48790600  1
  O  O33  1  0.57493700  0.58670600  0.01472000  1
  O  O34  1  0.07514400  0.31288700  0.32259600  1
  O  O35  1  0.52605600  0.44269900  0.18798800  1
  O  O36  1  0.07004300  0.77642100  0.89040100  1
  O  O37  1  0.56816700  0.06637900  0.60632500  1
