# generated using pymatgen
data_LiV2OF5
_symmetry_space_group_name_H-M   'P 1'
_cell_length_a   4.75465529
_cell_length_b   4.75465529
_cell_length_c   18.61395631
_cell_angle_alpha   89.77885113
_cell_angle_beta   89.77885113
_cell_angle_gamma   90.00122702
_symmetry_Int_Tables_number   1
_chemical_formula_structural   LiV2OF5
_chemical_formula_sum   'Li4 V8 O4 F20'
_cell_volume   420.79473104
_cell_formula_units_Z   4
loop_
 _symmetry_equiv_pos_site_id
 _symmetry_equiv_pos_as_xyz
  1  'x, y, z'
loop_
 _atom_site_type_symbol
 _atom_site_label
 _atom_site_symmetry_multiplicity
 _atom_site_fract_x
 _atom_site_fract_y
 _atom_site_fract_z
 _atom_site_occupancy
  Li  Li0  1  0.99553800  0.00304000  0.99999400  1
  Li  Li1  1  0.00304000  0.99553800  0.49999400  1
  Li  Li2  1  0.49624300  0.49669800  0.25006600  1
  Li  Li3  1  0.49669800  0.49624300  0.75006600  1
  V  V4  1  0.02179000  0.97524400  0.16703600  1
  V  V5  1  0.99187900  0.99152500  0.33969900  1
  V  V6  1  0.97524400  0.02179000  0.66703600  1
  V  V7  1  0.99152500  0.99187900  0.83969900  1
  V  V8  1  0.49085900  0.50743800  0.08975200  1
  V  V9  1  0.52435800  0.52096100  0.41711500  1
  V  V10  1  0.52096100  0.52435800  0.91711500  1
  V  V11  1  0.50743800  0.49085900  0.58975200  1
  O  O12  1  0.79177700  0.79030100  0.40602300  1
  O  O13  1  0.79030100  0.79177700  0.90602300  1
  O  O14  1  0.70699400  0.29012400  0.65599600  1
  O  O15  1  0.29012400  0.70699400  0.15599600  1
  F  F16  1  0.80035700  0.80275400  0.08432200  1
  F  F17  1  0.80275400  0.80035700  0.58432200  1
  F  F18  1  0.80682100  0.80454300  0.25102600  1
  F  F19  1  0.80454300  0.80682100  0.75102600  1
  F  F20  1  0.68797900  0.31396700  0.00247200  1
  F  F21  1  0.69542900  0.30645500  0.50081300  1
  F  F22  1  0.71057900  0.28745700  0.16487400  1
  F  F23  1  0.69653300  0.30120000  0.83471100  1
  F  F24  1  0.69827300  0.30082700  0.33436100  1
  F  F25  1  0.30120000  0.69653300  0.33471100  1
  F  F26  1  0.30082700  0.69827300  0.83436100  1
  F  F27  1  0.28745700  0.71057900  0.66487400  1
  F  F28  1  0.31396700  0.68797900  0.50247200  1
  F  F29  1  0.30645500  0.69542900  0.00081300  1
  F  F30  1  0.18455900  0.18966300  0.75221800  1
  F  F31  1  0.18966300  0.18455900  0.25221800  1
  F  F32  1  0.21222900  0.20977700  0.41485000  1
  F  F33  1  0.20977700  0.21222900  0.91485000  1
  F  F34  1  0.19870100  0.19713000  0.58467200  1
  F  F35  1  0.19713000  0.19870100  0.08467200  1
