# generated using pymatgen
data_Li5V3P8O29
_symmetry_space_group_name_H-M   'P 1'
_cell_length_a   9.75520300
_cell_length_b   9.79583159
_cell_length_c   14.01834074
_cell_angle_alpha   90.16505697
_cell_angle_beta   89.97884873
_cell_angle_gamma   119.85509536
_symmetry_Int_Tables_number   1
_chemical_formula_structural   Li5V3P8O29
_chemical_formula_sum   'Li10 V6 P16 O58'
_cell_volume   1161.80976576
_cell_formula_units_Z   2
loop_
 _symmetry_equiv_pos_site_id
 _symmetry_equiv_pos_as_xyz
  1  'x, y, z'
loop_
 _atom_site_type_symbol
 _atom_site_label
 _atom_site_symmetry_multiplicity
 _atom_site_fract_x
 _atom_site_fract_y
 _atom_site_fract_z
 _atom_site_occupancy
  Li  Li0  1  0.77271400  0.08676300  0.44212600  1
  Li  Li1  1  0.90450300  0.67673100  0.44275000  1
  Li  Li2  1  0.76441900  0.66253200  0.93726400  1
  Li  Li3  1  0.33272600  0.09478200  0.93888200  1
  Li  Li4  1  0.31873900  0.22617700  0.44068100  1
  Li  Li5  1  0.67010900  0.90656400  0.05824100  1
  Li  Li6  1  0.23616800  0.33727400  0.05827200  1
  Li  Li7  1  0.09162100  0.32286000  0.56265100  1
  Li  Li8  1  0.22591900  0.90331800  0.56017200  1
  Li  Li9  1  0.99725700  0.99785500  0.99532200  1
  V  V10  1  0.56833600  0.56936700  0.74513800  1
  V  V11  1  0.43361200  0.43453500  0.25324900  1
  V  V12  1  0.56718200  0.00015800  0.24971600  1
  V  V13  1  0.43430100  0.99912600  0.74933300  1
  V  V14  1  0.99541300  0.43194200  0.75823000  1
  V  V15  1  0.00356300  0.56865300  0.24279900  1
  P  P16  1  0.91683600  0.22365600  0.15894800  1
  P  P17  1  0.77244100  0.08932100  0.66021900  1
  P  P18  1  0.91247800  0.67945700  0.65633200  1
  P  P19  1  0.66348500  0.33557000  0.87234800  1
  P  P20  1  0.67102700  0.33470300  0.36952900  1
  P  P21  1  0.77091200  0.68554000  0.15691100  1
  P  P22  1  0.68498100  0.77155900  0.34126500  1
  P  P23  1  0.31513100  0.08944400  0.15675300  1
  P  P24  1  0.68686700  0.91149200  0.84313000  1
  P  P25  1  0.31996300  0.23064100  0.65775400  1
  P  P26  1  0.22960000  0.31545700  0.84071700  1
  P  P27  1  0.32712400  0.66282600  0.63181900  1
  P  P28  1  0.33505500  0.66507700  0.12740300  1
  P  P29  1  0.08545800  0.32045600  0.34501900  1
  P  P30  1  0.22884500  0.91039100  0.33920600  1
  P  P31  1  0.08436000  0.77816300  0.84082600  1
  O  O32  1  0.99776700  0.24833900  0.43569700  1
  O  O33  1  0.92029300  0.25795700  0.66574900  1
  O  O34  1  0.77718700  0.98633300  0.93335400  1
  O  O35  1  0.74567800  0.08319300  0.15848800  1
  O  O36  1  0.91671200  0.38226600  0.16904600  1
  O  O37  1  0.81142000  0.32881400  0.82612400  1
  O  O38  1  0.90582300  0.52135600  0.67885000  1
  O  O39  1  0.99189600  0.79011100  0.92238500  1
  O  O40  1  0.91679600  0.66103100  0.16493500  1
  O  O41  1  0.67462500  0.18584400  0.32949600  1
  O  O42  1  0.62051800  0.09967100  0.67996500  1
  O  O43  1  0.81702000  0.48347300  0.32244100  1
  O  O44  1  0.67335700  0.34039500  0.97861700  1
  O  O45  1  0.68120500  0.34248000  0.47576700  1
  O  O46  1  0.67693400  0.48991000  0.83144300  1
  O  O47  1  0.47157600  0.09033600  0.16983100  1
  O  O48  1  0.51044600  0.18955800  0.83335200  1
  O  O49  1  0.74670000  0.65827000  0.65896500  1
  O  O50  1  0.78844200  0.79846200  0.24475000  1
  O  O51  1  0.77130400  0.76126900  0.42525700  1
  O  O52  1  0.77954900  0.77303300  0.06633400  1
  O  O53  1  0.61894500  0.52931700  0.16979900  1
  O  O54  1  0.51466200  0.32732800  0.33300600  1
  O  O55  1  0.66190600  0.74255000  0.83615100  1
  O  O56  1  0.48115800  0.37709300  0.67615300  1
  O  O57  1  0.33478800  0.08071300  0.65672600  1
  O  O58  1  0.79371000  0.00066000  0.75058200  1
  O  O59  1  0.76588000  0.01114700  0.56837800  1
  O  O60  1  0.23946300  0.99818700  0.42963300  1
  O  O61  1  0.66173400  0.91688000  0.34171200  1
  O  O62  1  0.52288100  0.62011100  0.32324000  1
  O  O63  1  0.34030500  0.25913800  0.16611900  1
  O  O64  1  0.47767800  0.66945000  0.67460000  1
  O  O65  1  0.38448300  0.46917900  0.83068200  1
  O  O66  1  0.21980100  0.22217700  0.92929000  1
  O  O67  1  0.24114400  0.24361200  0.56845400  1
  O  O68  1  0.20728000  0.20679000  0.74848400  1
  O  O69  1  0.25075300  0.33529500  0.34399100  1
  O  O70  1  0.48892800  0.81094600  0.16629800  1
  O  O71  1  0.53067800  0.91153900  0.83169600  1
  O  O72  1  0.32311700  0.51112100  0.16789300  1
  O  O73  1  0.32442800  0.66085800  0.02138500  1
  O  O74  1  0.31484600  0.65187300  0.52566900  1
  O  O75  1  0.17948500  0.51361200  0.67800400  1
  O  O76  1  0.37875300  0.89890200  0.32124900  1
  O  O77  1  0.32315100  0.81341300  0.66945000  1
  O  O78  1  0.08579500  0.34260700  0.83738300  1
  O  O79  1  0.98974700  0.20356600  0.25815100  1
  O  O80  1  0.01085800  0.21409900  0.07772200  1
  O  O81  1  0.09643400  0.47962800  0.32171400  1
  O  O82  1  0.18793300  0.67165600  0.17525900  1
  O  O83  1  0.08382600  0.61949100  0.83197300  1
  O  O84  1  0.25617600  0.91775100  0.84060700  1
  O  O85  1  0.22820600  0.01770200  0.06568000  1
  O  O86  1  0.20613600  0.99842500  0.24858700  1
  O  O87  1  0.08016700  0.74368200  0.33836600  1
  O  O88  1  0.00137600  0.75197700  0.56575300  1
  O  O89  1  0.01057400  0.79769600  0.74240300  1
