# generated using pymatgen
data_Li4(CoO2)9
_symmetry_space_group_name_H-M   'P 1'
_cell_length_a   2.82252600
_cell_length_b   8.69743200
_cell_length_c   23.94320000
_cell_angle_alpha   90.00000000
_cell_angle_beta   90.00000000
_cell_angle_gamma   90.00000000
_symmetry_Int_Tables_number   1
_chemical_formula_structural   Li4(CoO2)9
_chemical_formula_sum   'Li8 Co18 O36'
_cell_volume   587.77510313
_cell_formula_units_Z   2
loop_
 _symmetry_equiv_pos_site_id
 _symmetry_equiv_pos_as_xyz
  1  'x, y, z'
loop_
 _atom_site_type_symbol
 _atom_site_label
 _atom_site_symmetry_multiplicity
 _atom_site_fract_x
 _atom_site_fract_y
 _atom_site_fract_z
 _atom_site_occupancy
  Li  Li0  1  0.50000000  0.66934200  0.99318400  1
  Li  Li1  1  0.50000000  0.70638700  0.20326700  1
  Li  Li2  1  0.50000000  0.79361300  0.70326700  1
  Li  Li3  1  0.50000000  0.83065800  0.49318400  1
  Li  Li4  1  0.50000000  0.16934200  0.50681600  1
  Li  Li5  1  0.50000000  0.20638700  0.29673300  1
  Li  Li6  1  0.50000000  0.29361300  0.79673300  1
  Li  Li7  1  0.50000000  0.33065800  0.00681600  1
  Co  Co8  1  0.50000000  0.50000000  0.50000000  1
  Co  Co9  1  0.50000000  0.51601100  0.10575800  1
  Co  Co10  1  0.50000000  0.51948800  0.31016400  1
  Co  Co11  1  0.00000000  0.64057600  0.58718600  1
  Co  Co12  1  0.00000000  0.64552400  0.80909300  1
  Co  Co13  1  0.00000000  0.85447600  0.30909300  1
  Co  Co14  1  0.00000000  0.85942400  0.08718600  1
  Co  Co15  1  0.50000000  0.98051200  0.81016400  1
  Co  Co16  1  0.50000000  0.98398900  0.60575800  1
  Co  Co17  1  0.50000000  0.00000000  0.00000000  1
  Co  Co18  1  0.50000000  0.01601100  0.39424200  1
  Co  Co19  1  0.50000000  0.01948800  0.18983600  1
  Co  Co20  1  0.00000000  0.14057600  0.91281400  1
  Co  Co21  1  0.00000000  0.14552400  0.69090700  1
  Co  Co22  1  0.00000000  0.35447600  0.19090700  1
  Co  Co23  1  0.00000000  0.35942400  0.41281400  1
  Co  Co24  1  0.50000000  0.48051200  0.68983600  1
  Co  Co25  1  0.50000000  0.48398900  0.89424200  1
  O  O26  1  0.50000000  0.49955100  0.42110000  1
  O  O27  1  0.50000000  0.50044900  0.57890000  1
  O  O28  1  0.00000000  0.53194000  0.94246700  1
  O  O29  1  0.00000000  0.55209300  0.15959800  1
  O  O30  1  0.00000000  0.61229200  0.66570200  1
  O  O31  1  0.50000000  0.60267800  0.76089500  1
  O  O32  1  0.00000000  0.64686100  0.50808500  1
  O  O33  1  0.00000000  0.64972400  0.28600100  1
  O  O34  1  0.50000000  0.67926000  0.85951600  1
  O  O35  1  0.50000000  0.71848000  0.08771800  1
  O  O36  1  0.50000000  0.78152000  0.58771800  1
  O  O37  1  0.50000000  0.82074000  0.35951600  1
  O  O38  1  0.00000000  0.85027600  0.78600100  1
  O  O39  1  0.00000000  0.85313900  0.00808500  1
  O  O40  1  0.50000000  0.89732200  0.26089500  1
  O  O41  1  0.00000000  0.88770800  0.16570200  1
  O  O42  1  0.00000000  0.94790700  0.65959800  1
  O  O43  1  0.00000000  0.96806000  0.44246700  1
  O  O44  1  0.50000000  0.99955100  0.07890000  1
  O  O45  1  0.50000000  0.00044900  0.92110000  1
  O  O46  1  0.00000000  0.03194000  0.55753300  1
  O  O47  1  0.00000000  0.05209300  0.34040200  1
  O  O48  1  0.00000000  0.11229200  0.83429800  1
  O  O49  1  0.50000000  0.10267800  0.73910500  1
  O  O50  1  0.00000000  0.14686100  0.99191500  1
  O  O51  1  0.00000000  0.14972400  0.21399900  1
  O  O52  1  0.50000000  0.17926000  0.64048400  1
  O  O53  1  0.50000000  0.21848000  0.41228200  1
  O  O54  1  0.50000000  0.28152000  0.91228200  1
  O  O55  1  0.50000000  0.32074000  0.14048400  1
  O  O56  1  0.00000000  0.35027600  0.71399900  1
  O  O57  1  0.00000000  0.35313900  0.49191500  1
  O  O58  1  0.50000000  0.39732200  0.23910500  1
  O  O59  1  0.00000000  0.38770800  0.33429800  1
  O  O60  1  0.00000000  0.44790700  0.84040200  1
  O  O61  1  0.00000000  0.46806000  0.05753300  1
