# generated using pymatgen
data_LiNi2P3O10
_symmetry_space_group_name_H-M   'P 1'
_cell_length_a   7.88263820
_cell_length_b   7.88263820
_cell_length_c   8.61978523
_cell_angle_alpha   64.95719604
_cell_angle_beta   64.95719604
_cell_angle_gamma   71.48332926
_symmetry_Int_Tables_number   1
_chemical_formula_structural   LiNi2P3O10
_chemical_formula_sum   'Li2 Ni4 P6 O20'
_cell_volume   433.33631921
_cell_formula_units_Z   2
loop_
 _symmetry_equiv_pos_site_id
 _symmetry_equiv_pos_as_xyz
  1  'x, y, z'
loop_
 _atom_site_type_symbol
 _atom_site_label
 _atom_site_symmetry_multiplicity
 _atom_site_fract_x
 _atom_site_fract_y
 _atom_site_fract_z
 _atom_site_occupancy
  Li  Li0  1  0.36146500  0.63853500  0.25000000  1
  Li  Li1  1  0.63853500  0.36146500  0.75000000  1
  Ni  Ni2  1  0.67631000  0.75502400  0.45473800  1
  Ni  Ni3  1  0.75502400  0.67631000  0.95473800  1
  Ni  Ni4  1  0.24497600  0.32369000  0.04526200  1
  Ni  Ni5  1  0.32369000  0.24497600  0.54526200  1
  P  P6  1  0.84366800  0.44674600  0.31093900  1
  P  P7  1  0.44674600  0.84366800  0.81093900  1
  P  P8  1  0.91000300  0.08999700  0.25000000  1
  P  P9  1  0.08999700  0.91000300  0.75000000  1
  P  P10  1  0.55325400  0.15633200  0.18906100  1
  P  P11  1  0.15633200  0.55325400  0.68906100  1
  O  O12  1  0.88438100  0.89030400  0.37571400  1
  O  O13  1  0.89030400  0.88438100  0.87571400  1
  O  O14  1  0.52387800  0.95483800  0.31530400  1
  O  O15  1  0.78532300  0.47847500  0.49260500  1
  O  O16  1  0.69204600  0.56949400  0.22051900  1
  O  O17  1  0.95483800  0.52387800  0.81530400  1
  O  O18  1  0.82786800  0.22402200  0.37325400  1
  O  O19  1  0.47847500  0.78532300  0.99260500  1
  O  O20  1  0.56949400  0.69204600  0.72051900  1
  O  O21  1  0.77597800  0.17213200  0.12674600  1
  O  O22  1  0.22402200  0.82786800  0.87325400  1
  O  O23  1  0.43050600  0.30795400  0.27948100  1
  O  O24  1  0.52152500  0.21467700  0.00739500  1
  O  O25  1  0.17213200  0.77597800  0.62674600  1
  O  O26  1  0.04516200  0.47612200  0.18469600  1
  O  O27  1  0.30795400  0.43050600  0.77948100  1
  O  O28  1  0.21467700  0.52152500  0.50739500  1
  O  O29  1  0.47612200  0.04516200  0.68469600  1
  O  O30  1  0.10969600  0.11561900  0.12428600  1
  O  O31  1  0.11561900  0.10969600  0.62428600  1
