# generated using pymatgen
data_LiV2P4(HO8)2
_symmetry_space_group_name_H-M   'P 1'
_cell_length_a   7.74141800
_cell_length_b   7.89510837
_cell_length_c   13.61815843
_cell_angle_alpha   89.94902990
_cell_angle_beta   81.33771647
_cell_angle_gamma   89.88695571
_symmetry_Int_Tables_number   1
_chemical_formula_structural   LiV2P4(HO8)2
_chemical_formula_sum   'Li3 V6 P12 H6 O48'
_cell_volume   822.83680756
_cell_formula_units_Z   3
loop_
 _symmetry_equiv_pos_site_id
 _symmetry_equiv_pos_as_xyz
  1  'x, y, z'
loop_
 _atom_site_type_symbol
 _atom_site_label
 _atom_site_symmetry_multiplicity
 _atom_site_fract_x
 _atom_site_fract_y
 _atom_site_fract_z
 _atom_site_occupancy
  Li  Li0  1  0.70928100  0.13010900  0.14779000  1
  Li  Li1  1  0.12819200  0.63383200  0.51798300  1
  Li  Li2  1  0.78964300  0.63079200  0.85263500  1
  V  V3  1  0.83283300  0.50723200  0.16767000  1
  V  V4  1  0.32475900  0.99390300  0.16698900  1
  V  V5  1  0.50948400  0.49229400  0.49670900  1
  V  V6  1  0.00036700  0.00582800  0.50148500  1
  V  V7  1  0.66820900  0.00789600  0.82990300  1
  V  V8  1  0.17419800  0.49680900  0.83492700  1
  P  P9  1  0.72039800  0.84936600  0.04524200  1
  P  P10  1  0.22381600  0.64422900  0.04750800  1
  P  P11  1  0.94817000  0.15801700  0.28908600  1
  P  P12  1  0.88681700  0.65812700  0.37876200  1
  P  P13  1  0.44304600  0.35329900  0.28385700  1
  P  P14  1  0.38946900  0.85337200  0.38158100  1
  P  P15  1  0.61043600  0.14602700  0.61901400  1
  P  P16  1  0.55181300  0.65470600  0.71011100  1
  P  P17  1  0.11341200  0.35033200  0.62173700  1
  P  P18  1  0.05839600  0.85193600  0.71575400  1
  P  P19  1  0.77897800  0.34896800  0.95405700  1
  P  P20  1  0.27852500  0.14510000  0.95318500  1
  H  H21  1  0.49571600  0.50833400  0.00395900  1
  H  H22  1  0.66768400  0.99681500  0.33452800  1
  H  H23  1  0.16853600  0.49416700  0.33177800  1
  H  H24  1  0.82758800  0.50353000  0.66817000  1
  H  H25  1  0.33522300  0.00023800  0.66554900  1
  H  H26  1  0.00680700  0.00882000  0.99594200  1
  O  O27  1  0.87505200  0.95895900  0.06257200  1
  O  O28  1  0.79608000  0.32884200  0.06579900  1
  O  O29  1  0.72710000  0.67281100  0.09118700  1
  O  O30  1  0.55459000  0.94728300  0.09928300  1
  O  O31  1  0.38680200  0.54597000  0.06331200  1
  O  O32  1  0.94268600  0.33143000  0.23975100  1
  O  O33  1  0.29701900  0.16080400  0.06497800  1
  O  O34  1  0.86504000  0.67406800  0.26888000  1
  O  O35  1  0.23303300  0.82612200  0.09401700  1
  O  O36  1  0.78581400  0.05879700  0.27174600  1
  O  O37  1  0.05774900  0.55876700  0.10012700  1
  O  O38  1  0.60721300  0.44785200  0.23347500  1
  O  O39  1  0.44675600  0.17497000  0.23463000  1
  O  O40  1  0.97386800  0.17372100  0.39818400  1
  O  O41  1  0.36562200  0.83982100  0.26899000  1
  O  O42  1  0.27526400  0.44691300  0.27331500  1
  O  O43  1  0.88991500  0.83091200  0.42802300  1
  O  O44  1  0.11475200  0.05855700  0.23467200  1
  O  O45  1  0.71753800  0.55871500  0.43011900  1
  O  O46  1  0.55632000  0.94704400  0.39237600  1
  O  O47  1  0.46486700  0.33796700  0.39670400  1
  O  O48  1  0.38640000  0.67373300  0.42946000  1
  O  O49  1  0.95526800  0.45959700  0.60763000  1
  O  O50  1  0.22465200  0.94552300  0.43482100  1
  O  O51  1  0.77786000  0.05917700  0.56563100  1
  O  O52  1  0.04707000  0.55679000  0.39707000  1
  O  O53  1  0.60215900  0.32697900  0.56811100  1
  O  O54  1  0.53292200  0.66026900  0.59856700  1
  O  O55  1  0.44721100  0.05112100  0.60333800  1
  O  O56  1  0.27515600  0.44790000  0.56579200  1
  O  O57  1  0.88925900  0.94396700  0.76552800  1
  O  O58  1  0.10426800  0.17194300  0.58152500  1
  O  O59  1  0.71453500  0.55282700  0.72778200  1
  O  O60  1  0.63475100  0.17485600  0.72772200  1
  O  O61  1  0.03873200  0.82567300  0.60455200  1
  O  O62  1  0.56006500  0.82960000  0.75488600  1
  O  O63  1  0.38648900  0.55852800  0.76462800  1
  O  O64  1  0.94568200  0.44794200  0.90224100  1
  O  O65  1  0.22263400  0.94648500  0.72931000  1
  O  O66  1  0.77348100  0.17358000  0.90787700  1
  O  O67  1  0.13668600  0.34140800  0.73411900  1
  O  O68  1  0.70039700  0.82882700  0.93413200  1
  O  O69  1  0.05259500  0.67430300  0.76954500  1
  O  O70  1  0.62487800  0.46020000  0.93669900  1
  O  O71  1  0.44374500  0.05999300  0.89817300  1
  O  O72  1  0.26763100  0.32782900  0.90824800  1
  O  O73  1  0.20719200  0.66260400  0.93567900  1
  O  O74  1  0.11539200  0.04699300  0.93774400  1
