# generated using pymatgen
data_Li2Mn2P2(H4O5)3
_symmetry_space_group_name_H-M   'P 1'
_cell_length_a   11.46016070
_cell_length_b   11.46016070
_cell_length_c   12.17377356
_cell_angle_alpha   86.05775786
_cell_angle_beta   86.05775786
_cell_angle_gamma   24.66662312
_symmetry_Int_Tables_number   1
_chemical_formula_structural   Li2Mn2P2(H4O5)3
_chemical_formula_sum   'Li4 Mn4 P4 H24 O30'
_cell_volume   665.60441712
_cell_formula_units_Z   2
loop_
 _symmetry_equiv_pos_site_id
 _symmetry_equiv_pos_as_xyz
  1  'x, y, z'
loop_
 _atom_site_type_symbol
 _atom_site_label
 _atom_site_symmetry_multiplicity
 _atom_site_fract_x
 _atom_site_fract_y
 _atom_site_fract_z
 _atom_site_occupancy
  Li  Li0  1  0.23853900  0.97427900  0.07083100  1
  Li  Li1  1  0.97427900  0.23853900  0.57083100  1
  Li  Li2  1  0.02765900  0.74759100  0.43003500  1
  Li  Li3  1  0.74759100  0.02765900  0.93003500  1
  Mn  Mn4  1  0.42505100  0.06956400  0.12368600  1
  Mn  Mn5  1  0.92501800  0.56835500  0.37773300  1
  Mn  Mn6  1  0.06956400  0.42505100  0.62368600  1
  Mn  Mn7  1  0.56835500  0.92501800  0.87773300  1
  P  P8  1  0.82107700  0.50412100  0.21305700  1
  P  P9  1  0.50412100  0.82107700  0.71305700  1
  P  P10  1  0.49112500  0.17132500  0.28845100  1
  P  P11  1  0.17132500  0.49112500  0.78845100  1
  H  H12  1  0.46912500  0.56091600  0.14926900  1
  H  H13  1  0.83900100  0.22584100  0.22963600  1
  H  H14  1  0.56091600  0.46912500  0.64926900  1
  H  H15  1  0.01640300  0.11119400  0.37473500  1
  H  H16  1  0.22584100  0.83900100  0.72963600  1
  H  H17  1  0.11119400  0.01640300  0.87473500  1
  H  H18  1  0.26936500  0.95979200  0.39362000  1
  H  H19  1  0.95979200  0.26936500  0.89362000  1
  H  H20  1  0.89985500  0.62847200  0.06585100  1
  H  H21  1  0.36431200  0.09416500  0.43323700  1
  H  H22  1  0.62847200  0.89985500  0.56585100  1
  H  H23  1  0.09416500  0.36431200  0.93323700  1
  H  H24  1  0.02714800  0.73277100  0.10933000  1
  H  H25  1  0.73277100  0.02714800  0.60933000  1
  H  H26  1  0.88399200  0.98112900  0.12526000  1
  H  H27  1  0.76346300  0.15474900  0.27375100  1
  H  H28  1  0.98112900  0.88399200  0.62526000  1
  H  H29  1  0.43220200  0.52590600  0.34960400  1
  H  H30  1  0.26214200  0.72338300  0.05729700  1
  H  H31  1  0.15474900  0.76346300  0.77375100  1
  H  H32  1  0.26889700  0.73617200  0.44003900  1
  H  H33  1  0.52590600  0.43220200  0.84960400  1
  H  H34  1  0.72338300  0.26214200  0.55729700  1
  H  H35  1  0.73617200  0.26889700  0.94003900  1
  O  O36  1  0.35000200  0.70865400  0.09234400  1
  O  O37  1  0.70865400  0.35000200  0.59234400  1
  O  O38  1  0.14750500  0.01218700  0.43126300  1
  O  O39  1  0.93614800  0.28135500  0.18605400  1
  O  O40  1  0.01218700  0.14750500  0.93126300  1
  O  O41  1  0.74979100  0.57830100  0.33835000  1
  O  O42  1  0.28135500  0.93614800  0.68605400  1
  O  O43  1  0.55872200  0.77973000  0.14372900  1
  O  O44  1  0.57830100  0.74979100  0.83835000  1
  O  O45  1  0.77973000  0.55872200  0.64372900  1
  O  O46  1  0.04883600  0.39772400  0.19024300  1
  O  O47  1  0.18357900  0.24430800  0.47045500  1
  O  O48  1  0.39772400  0.04883600  0.69024300  1
  O  O49  1  0.74768600  0.81230100  0.02996700  1
  O  O50  1  0.24430800  0.18357900  0.97045500  1
  O  O51  1  0.59635600  0.94433400  0.31127700  1
  O  O52  1  0.81230100  0.74768600  0.52996700  1
  O  O53  1  0.94433400  0.59635600  0.81127700  1
  O  O54  1  0.21653300  0.43333100  0.35807200  1
  O  O55  1  0.41627400  0.24340900  0.16343100  1
  O  O56  1  0.43333100  0.21653300  0.85807200  1
  O  O57  1  0.71608000  0.05328300  0.31557300  1
  O  O58  1  0.24340900  0.41627400  0.66343100  1
  O  O59  1  0.98052800  0.84955400  0.06976900  1
  O  O60  1  0.05328300  0.71608000  0.81557300  1
  O  O61  1  0.84955400  0.98052800  0.56976900  1
  O  O62  1  0.28094300  0.65053500  0.40538200  1
  O  O63  1  0.69497500  0.29675700  0.25015900  1
  O  O64  1  0.65053500  0.28094300  0.90538200  1
  O  O65  1  0.29675700  0.69497500  0.75015900  1
