# generated using pymatgen
data_Li3P7W5O29
_symmetry_space_group_name_H-M   'P 1'
_cell_length_a   6.54310000
_cell_length_b   10.84966175
_cell_length_c   19.05679977
_cell_angle_alpha   91.86185720
_cell_angle_beta   94.97547706
_cell_angle_gamma   107.42131622
_symmetry_Int_Tables_number   1
_chemical_formula_structural   Li3P7W5O29
_chemical_formula_sum   'Li6 P14 W10 O58'
_cell_volume   1283.49581925
_cell_formula_units_Z   2
loop_
 _symmetry_equiv_pos_site_id
 _symmetry_equiv_pos_as_xyz
  1  'x, y, z'
loop_
 _atom_site_type_symbol
 _atom_site_label
 _atom_site_symmetry_multiplicity
 _atom_site_fract_x
 _atom_site_fract_y
 _atom_site_fract_z
 _atom_site_occupancy
  Li  Li0  1  0.45963300  0.08341400  0.46416400  1
  Li  Li1  1  0.31200600  0.60791300  0.23843100  1
  Li  Li2  1  0.14149200  0.31479600  0.14420100  1
  Li  Li3  1  0.87757100  0.08784900  0.92946700  1
  Li  Li4  1  0.87736900  0.67902500  0.86216600  1
  Li  Li5  1  0.69325000  0.39250500  0.75949100  1
  P  P6  1  0.16658300  0.56591600  0.78720900  1
  P  P7  1  0.03325100  0.32347200  0.54767300  1
  P  P8  1  0.17091400  0.34798300  0.98859300  1
  P  P9  1  0.39701700  0.95550400  0.65973700  1
  P  P10  1  0.24928200  0.28543400  0.42489600  1
  P  P11  1  0.40051600  0.78216000  0.14601600  1
  P  P12  1  0.07332000  0.07768100  0.19839700  1
  P  P13  1  0.92844900  0.91774800  0.80438700  1
  P  P14  1  0.60424900  0.21695000  0.85534400  1
  P  P15  1  0.75862100  0.70939500  0.57970600  1
  P  P16  1  0.60481300  0.04217600  0.34277600  1
  P  P17  1  0.81871500  0.64695100  0.01191900  1
  P  P18  1  0.96828300  0.67158500  0.45550400  1
  P  P19  1  0.84106800  0.43221000  0.21437200  1
  W  W20  1  0.06139200  0.94925400  0.35465000  1
  W  W21  1  0.31841900  0.67376100  0.96891300  1
  W  W22  1  0.42282900  0.87398000  0.84234300  1
  W  W23  1  0.11152000  0.25001900  0.81091700  1
  W  W24  1  0.21509500  0.63339500  0.61172300  1
  W  W25  1  0.79143300  0.36478600  0.39042900  1
  W  W26  1  0.88967800  0.74828100  0.18698300  1
  W  W27  1  0.58077100  0.12380200  0.15919700  1
  W  W28  1  0.67344200  0.32348900  0.03289700  1
  W  W29  1  0.93399000  0.03960700  0.64474100  1
  O  O30  1  0.00440400  0.69625600  0.96395100  1
  O  O31  1  0.09283500  0.85039000  0.83431100  1
  O  O32  1  0.00353700  0.94067500  0.16500400  1
  O  O33  1  0.03534500  0.80836700  0.43191900  1
  O  O34  1  0.16917400  0.47851200  0.96019100  1
  O  O35  1  0.14527700  0.64056800  0.50254300  1
  O  O36  1  0.40874500  0.93186300  0.73863100  1
  O  O37  1  0.29179200  0.66477000  0.85155100  1
  O  O38  1  0.44643400  0.85292900  0.94289800  1
  O  O39  1  0.13629200  0.25002000  0.92406100  1
  O  O40  1  0.03133400  0.18649400  0.71369300  1
  O  O41  1  0.32508000  0.82759000  0.61338700  1
  O  O42  1  0.11707900  0.43100000  0.60759300  1
  O  O43  1  0.23570300  0.44143500  0.79889000  1
  O  O44  1  0.26526800  0.62757900  0.72215700  1
  O  O45  1  0.20094800  0.73406800  0.18708500  1
  O  O46  1  0.08000100  0.32928400  0.37948800  1
  O  O47  1  0.08152100  0.44970600  0.21212000  1
  O  O48  1  0.38593900  0.96214900  0.36821400  1
  O  O49  1  0.24472100  0.33721800  0.50489700  1
  O  O50  1  0.47012100  0.92549700  0.13562600  1
  O  O51  1  0.35426900  0.70589800  0.07336700  1
  O  O52  1  0.10001600  0.08648800  0.27898700  1
  O  O53  1  0.20410800  0.13731200  0.42618800  1
  O  O54  1  0.61388500  0.63473100  0.96240600  1
  O  O55  1  0.71391200  0.83804500  0.83215500  1
  O  O56  1  0.24175700  0.03350600  0.63745900  1
  O  O57  1  0.53199100  0.64231000  0.59920300  1
  O  O58  1  0.42727400  0.24085700  0.80381200  1
  O  O59  1  0.56445700  0.73621200  0.19387600  1
  O  O60  1  0.47483800  0.35582000  0.40561600  1
  O  O61  1  0.76260000  0.96618600  0.36381100  1
  O  O62  1  0.28960400  0.15988900  0.17167200  1
  O  O63  1  0.37359300  0.35753000  0.03826000  1
  O  O64  1  0.82344800  0.85691500  0.58133700  1
  O  O65  1  0.90512300  0.90970700  0.72454600  1
  O  O66  1  0.62422200  0.29451200  0.92664100  1
  O  O67  1  0.57976600  0.07572100  0.87198000  1
  O  O68  1  0.75924400  0.65758500  0.49878300  1
  O  O69  1  0.61835700  0.03620800  0.63823200  1
  O  O70  1  0.92554700  0.54569200  0.78900700  1
  O  O71  1  0.91812700  0.65432200  0.62391100  1
  O  O72  1  0.80618800  0.27437200  0.81649100  1
  O  O73  1  0.74568700  0.37096700  0.28049100  1
  O  O74  1  0.77671400  0.55688400  0.20350300  1
  O  O75  1  0.88610400  0.56410000  0.39440100  1
  O  O76  1  0.66867400  0.16662700  0.39429300  1
  O  O77  1  0.96696800  0.80496300  0.28719400  1
  O  O78  1  0.83899300  0.73648400  0.07740700  1
  O  O79  1  0.55775700  0.14398100  0.05837600  1
  O  O80  1  0.70816800  0.33409100  0.15031300  1
  O  O81  1  0.59053200  0.07349700  0.26623000  1
  O  O82  1  0.85647900  0.35296100  0.49916700  1
  O  O83  1  0.82701400  0.51456900  0.03797200  1
  O  O84  1  0.96178800  0.18561800  0.56939100  1
  O  O85  1  0.99274000  0.05635800  0.83914100  1
  O  O86  1  0.91158500  0.15002500  0.17071000  1
  O  O87  1  0.98211300  0.29411800  0.03470500  1
