# generated using pymatgen
data_Li4Cr2Fe5O12
_symmetry_space_group_name_H-M   'P 1'
_cell_length_a   9.07970200
_cell_length_b   5.12417100
_cell_length_c   9.84929542
_cell_angle_alpha   78.99761866
_cell_angle_beta   90.00000000
_cell_angle_gamma   90.00000000
_symmetry_Int_Tables_number   1
_chemical_formula_structural   Li4Cr2Fe5O12
_chemical_formula_sum   'Li8 Cr4 Fe10 O24'
_cell_volume   449.82484650
_cell_formula_units_Z   2
loop_
 _symmetry_equiv_pos_site_id
 _symmetry_equiv_pos_as_xyz
  1  'x, y, z'
loop_
 _atom_site_type_symbol
 _atom_site_label
 _atom_site_symmetry_multiplicity
 _atom_site_fract_x
 _atom_site_fract_y
 _atom_site_fract_z
 _atom_site_occupancy
  Li  Li0  1  0.91261300  0.00542200  0.74292600  1
  Li  Li1  1  0.92103800  0.49129600  0.25772300  1
  Li  Li2  1  0.58313600  0.76002400  0.50525900  1
  Li  Li3  1  0.58368700  0.50314100  0.25891900  1
  Li  Li4  1  0.41261300  0.99457800  0.25707400  1
  Li  Li5  1  0.42103800  0.50870400  0.74227700  1
  Li  Li6  1  0.08313600  0.23997600  0.49474100  1
  Li  Li7  1  0.08368700  0.49685900  0.74108100  1
  Cr  Cr8  1  0.74841000  0.24771700  0.50377000  1
  Cr  Cr9  1  0.74729000  0.74934300  0.99815900  1
  Cr  Cr10  1  0.24729000  0.25065700  0.00184100  1
  Cr  Cr11  1  0.24841000  0.75228300  0.49623000  1
  Fe  Fe12  1  0.92201500  0.24812500  0.00492800  1
  Fe  Fe13  1  0.92442000  0.74936400  0.49531700  1
  Fe  Fe14  1  0.74870100  0.99458500  0.25725600  1
  Fe  Fe15  1  0.57996100  0.24054800  0.99758600  1
  Fe  Fe16  1  0.73962400  0.51192100  0.74141600  1
  Fe  Fe17  1  0.42442000  0.25063600  0.50468300  1
  Fe  Fe18  1  0.42201500  0.75187500  0.99507200  1
  Fe  Fe19  1  0.24870100  0.00541500  0.74274400  1
  Fe  Fe20  1  0.23962400  0.48807900  0.25858400  1
  Fe  Fe21  1  0.07996100  0.75945200  0.00241400  1
  O  O22  1  0.89675500  0.11581900  0.38216400  1
  O  O23  1  0.89631400  0.87996500  0.11824800  1
  O  O24  1  0.76651100  0.86837900  0.61818400  1
  O  O25  1  0.76189900  0.13474400  0.88470700  1
  O  O26  1  0.90047600  0.38672100  0.62359300  1
  O  O27  1  0.90402400  0.61972600  0.88207700  1
  O  O28  1  0.59221900  0.13135600  0.37997600  1
  O  O29  1  0.75950500  0.62789900  0.37735700  1
  O  O30  1  0.59025400  0.85888700  0.12317400  1
  O  O31  1  0.75747200  0.36938300  0.12206300  1
  O  O32  1  0.59032900  0.62454400  0.87932200  1
  O  O33  1  0.59059600  0.38773000  0.61680500  1
  O  O34  1  0.39675500  0.88418100  0.61783600  1
  O  O35  1  0.39631400  0.12003500  0.88175200  1
  O  O36  1  0.26651100  0.13162100  0.38181600  1
  O  O37  1  0.40047600  0.61327900  0.37640700  1
  O  O38  1  0.26189900  0.86525600  0.11529300  1
  O  O39  1  0.40402400  0.38027400  0.11792300  1
  O  O40  1  0.25950500  0.37210100  0.62264300  1
  O  O41  1  0.09025400  0.14111300  0.87682600  1
  O  O42  1  0.09221900  0.86864400  0.62002400  1
  O  O43  1  0.25747200  0.63061700  0.87793700  1
  O  O44  1  0.09059600  0.61227000  0.38319500  1
  O  O45  1  0.09032900  0.37545600  0.12067800  1
