# generated using pymatgen
data_Li2MnSiO4
_symmetry_space_group_name_H-M   'P 1'
_cell_length_a   5.45265700
_cell_length_b   10.61562700
_cell_length_c   13.18727000
_cell_angle_alpha   90.00000000
_cell_angle_beta   90.00000000
_cell_angle_gamma   90.00000000
_symmetry_Int_Tables_number   1
_chemical_formula_structural   Li2MnSiO4
_chemical_formula_sum   'Li16 Mn8 Si8 O32'
_cell_volume   763.32366656
_cell_formula_units_Z   8
loop_
 _symmetry_equiv_pos_site_id
 _symmetry_equiv_pos_as_xyz
  1  'x, y, z'
loop_
 _atom_site_type_symbol
 _atom_site_label
 _atom_site_symmetry_multiplicity
 _atom_site_fract_x
 _atom_site_fract_y
 _atom_site_fract_z
 _atom_site_occupancy
  Li  Li0  1  0.96904200  0.97197600  0.56080200  1
  Li  Li1  1  0.46128500  0.95284800  0.94272500  1
  Li  Li2  1  0.36782300  0.21261900  0.30051200  1
  Li  Li3  1  0.85103400  0.20748100  0.20227300  1
  Li  Li4  1  0.85103400  0.29251900  0.70227300  1
  Li  Li5  1  0.36782300  0.28738100  0.80051200  1
  Li  Li6  1  0.96904200  0.52802400  0.06080200  1
  Li  Li7  1  0.46128500  0.54715200  0.44272500  1
  Li  Li8  1  0.53871500  0.45284800  0.94272500  1
  Li  Li9  1  0.03095800  0.47197600  0.56080200  1
  Li  Li10  1  0.63217700  0.71261900  0.30051200  1
  Li  Li11  1  0.14896600  0.70748100  0.20227300  1
  Li  Li12  1  0.14896600  0.79251900  0.70227300  1
  Li  Li13  1  0.63217700  0.78738100  0.80051200  1
  Li  Li14  1  0.03095800  0.02802400  0.06080200  1
  Li  Li15  1  0.53871500  0.04715200  0.44272500  1
  Mn  Mn16  1  0.96877400  0.03577700  0.81266600  1
  Mn  Mn17  1  0.51765400  0.20637600  0.05700100  1
  Mn  Mn18  1  0.51765400  0.29362400  0.55700100  1
  Mn  Mn19  1  0.96877400  0.46422300  0.31266600  1
  Mn  Mn20  1  0.03122600  0.53577700  0.81266600  1
  Mn  Mn21  1  0.48234600  0.70637600  0.05700100  1
  Mn  Mn22  1  0.48234600  0.79362400  0.55700100  1
  Mn  Mn23  1  0.03122600  0.96422300  0.31266600  1
  Si  Si24  1  0.47812900  0.03508200  0.69037300  1
  Si  Si25  1  0.02433200  0.21092300  0.43717100  1
  Si  Si26  1  0.02433200  0.28907700  0.93717100  1
  Si  Si27  1  0.47812900  0.46491800  0.19037300  1
  Si  Si28  1  0.52187100  0.53508200  0.69037300  1
  Si  Si29  1  0.97566800  0.71092300  0.43717100  1
  Si  Si30  1  0.97566800  0.78907700  0.93717100  1
  Si  Si31  1  0.52187100  0.96491800  0.19037300  1
  O  O32  1  0.39454300  0.02301000  0.29483900  1
  O  O33  1  0.81328200  0.01092800  0.18809700  1
  O  O34  1  0.89813600  0.07027300  0.43378500  1
  O  O35  1  0.39303500  0.02727200  0.08832000  1
  O  O36  1  0.52479600  0.19006100  0.69213300  1
  O  O37  1  0.01235800  0.22884400  0.82076700  1
  O  O38  1  0.32205800  0.19548800  0.45576500  1
  O  O39  1  0.89478600  0.19824300  0.02350200  1
  O  O40  1  0.89478600  0.30175700  0.52350200  1
  O  O41  1  0.32205800  0.30451200  0.95576500  1
  O  O42  1  0.01235800  0.27115600  0.32076700  1
  O  O43  1  0.52479600  0.30993900  0.19213300  1
  O  O44  1  0.39303500  0.47272800  0.58832000  1
  O  O45  1  0.89813600  0.42972700  0.93378500  1
  O  O46  1  0.81328200  0.48907200  0.68809700  1
  O  O47  1  0.39454300  0.47699000  0.79483900  1
  O  O48  1  0.60545700  0.52301000  0.29483900  1
  O  O49  1  0.18671800  0.51092800  0.18809700  1
  O  O50  1  0.10186400  0.57027300  0.43378500  1
  O  O51  1  0.60696500  0.52727200  0.08832000  1
  O  O52  1  0.47520400  0.69006100  0.69213300  1
  O  O53  1  0.98764200  0.72884400  0.82076700  1
  O  O54  1  0.67794200  0.69548800  0.45576500  1
  O  O55  1  0.10521400  0.69824300  0.02350200  1
  O  O56  1  0.10521400  0.80175700  0.52350200  1
  O  O57  1  0.67794200  0.80451200  0.95576500  1
  O  O58  1  0.98764200  0.77115600  0.32076700  1
  O  O59  1  0.47520400  0.80993900  0.19213300  1
  O  O60  1  0.60696500  0.97272800  0.58832000  1
  O  O61  1  0.10186400  0.92972700  0.93378500  1
  O  O62  1  0.18671800  0.98907200  0.68809700  1
  O  O63  1  0.60545700  0.97699000  0.79483900  1
