# generated using pymatgen
data_LiMn4(PO4)3
_symmetry_space_group_name_H-M   'P 1'
_cell_length_a   6.59007800
_cell_length_b   10.16624400
_cell_length_c   15.96927000
_cell_angle_alpha   90.00000000
_cell_angle_beta   90.00000000
_cell_angle_gamma   90.00000000
_symmetry_Int_Tables_number   1
_chemical_formula_structural   LiMn4(PO4)3
_chemical_formula_sum   'Li4 Mn16 P12 O48'
_cell_volume   1069.88265728
_cell_formula_units_Z   4
loop_
 _symmetry_equiv_pos_site_id
 _symmetry_equiv_pos_as_xyz
  1  'x, y, z'
loop_
 _atom_site_type_symbol
 _atom_site_label
 _atom_site_symmetry_multiplicity
 _atom_site_fract_x
 _atom_site_fract_y
 _atom_site_fract_z
 _atom_site_occupancy
  Li  Li0  1  0.75000000  0.25831500  0.21189000  1
  Li  Li1  1  0.75000000  0.75831500  0.28811000  1
  Li  Li2  1  0.25000000  0.74168500  0.78811000  1
  Li  Li3  1  0.25000000  0.24168500  0.71189000  1
  Mn  Mn4  1  0.99996100  0.74519300  0.55256200  1
  Mn  Mn5  1  0.99996100  0.24519300  0.94743800  1
  Mn  Mn6  1  0.75000000  0.42780000  0.62634300  1
  Mn  Mn7  1  0.75000000  0.03488700  0.63192800  1
  Mn  Mn8  1  0.75000000  0.53488700  0.86807200  1
  Mn  Mn9  1  0.75000000  0.92780000  0.87365700  1
  Mn  Mn10  1  0.50003900  0.74519300  0.55256200  1
  Mn  Mn11  1  0.50003900  0.24519300  0.94743800  1
  Mn  Mn12  1  0.49996100  0.25480700  0.44743800  1
  Mn  Mn13  1  0.49996100  0.75480700  0.05256200  1
  Mn  Mn14  1  0.25000000  0.57220000  0.37365700  1
  Mn  Mn15  1  0.25000000  0.46511300  0.13192800  1
  Mn  Mn16  1  0.25000000  0.96511300  0.36807200  1
  Mn  Mn17  1  0.25000000  0.07220000  0.12634300  1
  Mn  Mn18  1  0.00003900  0.75480700  0.05256200  1
  Mn  Mn19  1  0.00003900  0.25480700  0.44743800  1
  P  P20  1  0.75000000  0.47337000  0.06325300  1
  P  P21  1  0.75000000  0.05147600  0.05639700  1
  P  P22  1  0.75000000  0.55147600  0.44360300  1
  P  P23  1  0.75000000  0.20419100  0.77409000  1
  P  P24  1  0.75000000  0.97337000  0.43674700  1
  P  P25  1  0.75000000  0.70419100  0.72591000  1
  P  P26  1  0.25000000  0.29580900  0.27409000  1
  P  P27  1  0.25000000  0.79580900  0.22591000  1
  P  P28  1  0.25000000  0.44852400  0.55639700  1
  P  P29  1  0.25000000  0.52663000  0.93674700  1
  P  P30  1  0.25000000  0.94852400  0.94360300  1
  P  P31  1  0.25000000  0.02663000  0.56325300  1
  O  O32  1  0.94002600  0.61009700  0.40237300  1
  O  O33  1  0.94002600  0.11009700  0.09762700  1
  O  O34  1  0.93877500  0.44410900  0.11498800  1
  O  O35  1  0.93877500  0.94410900  0.38501200  1
  O  O36  1  0.94574200  0.75641300  0.68268700  1
  O  O37  1  0.94574200  0.25641300  0.81731300  1
  O  O38  1  0.75000000  0.89772000  0.05338200  1
  O  O39  1  0.75000000  0.62057000  0.02982500  1
  O  O40  1  0.75000000  0.24230500  0.68018800  1
  O  O41  1  0.75000000  0.55026200  0.72978200  1
  O  O42  1  0.75000000  0.59957100  0.53865900  1
  O  O43  1  0.75000000  0.38540500  0.98013900  1
  O  O44  1  0.75000000  0.09957100  0.96134100  1
  O  O45  1  0.75000000  0.88540500  0.51986100  1
  O  O46  1  0.75000000  0.05026300  0.77021800  1
  O  O47  1  0.75000000  0.39772000  0.44661800  1
  O  O48  1  0.75000000  0.12057000  0.47017500  1
  O  O49  1  0.75000000  0.74230500  0.81981200  1
  O  O50  1  0.55425800  0.75641300  0.68268700  1
  O  O51  1  0.55425800  0.25641300  0.81731300  1
  O  O52  1  0.56122500  0.44410900  0.11498800  1
  O  O53  1  0.56122500  0.94410900  0.38501200  1
  O  O54  1  0.55997400  0.11009700  0.09762700  1
  O  O55  1  0.55997400  0.61009700  0.40237300  1
  O  O56  1  0.44002600  0.38990300  0.59762700  1
  O  O57  1  0.44002600  0.88990300  0.90237300  1
  O  O58  1  0.43877500  0.05589100  0.61498800  1
  O  O59  1  0.43877500  0.55589100  0.88501200  1
  O  O60  1  0.44574200  0.74358700  0.18268700  1
  O  O61  1  0.44574200  0.24358700  0.31731300  1
  O  O62  1  0.25000000  0.40042900  0.46134100  1
  O  O63  1  0.25000000  0.37943000  0.97017500  1
  O  O64  1  0.25000000  0.61459500  0.01986100  1
  O  O65  1  0.25000000  0.90042900  0.03865900  1
  O  O66  1  0.25000000  0.94973800  0.22978200  1
  O  O67  1  0.25000000  0.44973800  0.27021800  1
  O  O68  1  0.25000000  0.75769500  0.31981200  1
  O  O69  1  0.25000000  0.25769500  0.18018800  1
  O  O70  1  0.25000000  0.87943000  0.52982500  1
  O  O71  1  0.25000000  0.60228000  0.55338200  1
  O  O72  1  0.25000000  0.11459500  0.48013900  1
  O  O73  1  0.25000000  0.10228000  0.94661800  1
  O  O74  1  0.05425800  0.74358700  0.18268700  1
  O  O75  1  0.05425800  0.24358700  0.31731300  1
  O  O76  1  0.06122500  0.55589100  0.88501200  1
  O  O77  1  0.06122500  0.05589100  0.61498800  1
  O  O78  1  0.05997400  0.38990300  0.59762700  1
  O  O79  1  0.05997400  0.88990300  0.90237300  1
