# generated using pymatgen
data_LiCoPO4
_symmetry_space_group_name_H-M   'P 1'
_cell_length_a   10.57721261
_cell_length_b   10.57721261
_cell_length_c   12.35876500
_cell_angle_alpha   90.00000000
_cell_angle_beta   90.00000000
_cell_angle_gamma   120.00000383
_symmetry_Int_Tables_number   1
_chemical_formula_structural   LiCoPO4
_chemical_formula_sum   'Li12 Co12 P12 O48'
_cell_volume   1197.42454894
_cell_formula_units_Z   12
loop_
 _symmetry_equiv_pos_site_id
 _symmetry_equiv_pos_as_xyz
  1  'x, y, z'
loop_
 _atom_site_type_symbol
 _atom_site_label
 _atom_site_symmetry_multiplicity
 _atom_site_fract_x
 _atom_site_fract_y
 _atom_site_fract_z
 _atom_site_occupancy
  Li  Li0  1  0.00000000  0.50000000  0.00560300  1
  Li  Li1  1  0.00000000  0.50000000  0.66106400  1
  Li  Li2  1  0.00000000  0.50000000  0.33333300  1
  Li  Li3  1  0.00000000  0.00000000  0.16666700  1
  Li  Li4  1  0.00000000  0.00000000  0.50000000  1
  Li  Li5  1  0.00000000  0.00000000  0.83333300  1
  Li  Li6  1  0.50000000  0.50000000  0.33893600  1
  Li  Li7  1  0.50000000  0.50000000  0.66666700  1
  Li  Li8  1  0.50000000  0.50000000  0.99439700  1
  Li  Li9  1  0.50000000  0.00000000  0.32773000  1
  Li  Li10  1  0.50000000  0.00000000  0.00000000  1
  Li  Li11  1  0.50000000  0.00000000  0.67227000  1
  Co  Co12  1  0.00000000  0.74945900  0.83333300  1
  Co  Co13  1  0.00000000  0.25054100  0.83333300  1
  Co  Co14  1  0.24943800  0.75056200  0.16666700  1
  Co  Co15  1  0.24943800  0.49887600  0.50000000  1
  Co  Co16  1  0.50112400  0.75056200  0.83333300  1
  Co  Co17  1  0.25054100  0.25054100  0.16666700  1
  Co  Co18  1  0.25054100  0.00000000  0.50000000  1
  Co  Co19  1  0.74945900  0.74945900  0.16666700  1
  Co  Co20  1  0.49887600  0.24943800  0.83333300  1
  Co  Co21  1  0.75056200  0.50112400  0.50000000  1
  Co  Co22  1  0.75056200  0.24943800  0.16666700  1
  Co  Co23  1  0.74945900  0.00000000  0.50000000  1
  P  P24  1  0.00000000  0.75541200  0.33333300  1
  P  P25  1  0.24792300  0.75207700  0.66666700  1
  P  P26  1  0.00000000  0.24458800  0.33333300  1
  P  P27  1  0.24792300  0.49584600  0.00000000  1
  P  P28  1  0.24458800  0.24458800  0.66666700  1
  P  P29  1  0.50415400  0.75207700  0.33333300  1
  P  P30  1  0.24458800  0.00000000  0.00000000  1
  P  P31  1  0.49584600  0.24792300  0.33333300  1
  P  P32  1  0.75541200  0.75541200  0.66666700  1
  P  P33  1  0.75207700  0.50415400  0.00000000  1
  P  P34  1  0.75207700  0.24792300  0.66666700  1
  P  P35  1  0.75541200  0.00000000  0.00000000  1
  O  O36  1  0.06721600  0.87728000  0.42062500  1
  O  O37  1  0.12272000  0.93278400  0.91270900  1
  O  O38  1  0.10362300  0.69810500  0.73080900  1
  O  O39  1  0.11103600  0.71695000  0.28233700  1
  O  O40  1  0.28305000  0.88896400  0.05099700  1
  O  O41  1  0.30189500  0.89637700  0.60252400  1
  O  O42  1  0.20228200  0.61881700  0.59183500  1
  O  O43  1  0.10362300  0.40551800  0.93585800  1
  O  O44  1  0.20228200  0.58346500  0.07483200  1
  O  O45  1  0.11103600  0.39408600  0.38433000  1
  O  O46  1  0.06721600  0.18993600  0.24604200  1
  O  O47  1  0.38118300  0.79771800  0.74149900  1
  O  O48  1  0.41653500  0.79771800  0.25850100  1
  O  O49  1  0.12272000  0.18993600  0.75395800  1
  O  O50  1  0.28305000  0.39408600  0.61567000  1
  O  O51  1  0.38118300  0.58346500  0.92516800  1
  O  O52  1  0.30189500  0.40551800  0.06414200  1
  O  O53  1  0.41653500  0.61881700  0.40816500  1
  O  O54  1  0.18993600  0.12272000  0.57937500  1
  O  O55  1  0.18993600  0.06721600  0.08729100  1
  O  O56  1  0.59448200  0.89637700  0.39747600  1
  O  O57  1  0.60591400  0.88896400  0.94900300  1
  O  O58  1  0.60591400  0.71695000  0.71766300  1
  O  O59  1  0.40551800  0.30189500  0.26919100  1
  O  O60  1  0.59448200  0.69810500  0.26919100  1
  O  O61  1  0.39408600  0.28305000  0.71766300  1
  O  O62  1  0.39408600  0.11103600  0.94900300  1
  O  O63  1  0.40551800  0.10362300  0.39747600  1
  O  O64  1  0.81006400  0.93278400  0.08729100  1
  O  O65  1  0.81006400  0.87728000  0.57937500  1
  O  O66  1  0.58346500  0.38118300  0.40816500  1
  O  O67  1  0.69810500  0.59448200  0.06414200  1
  O  O68  1  0.61881700  0.41653500  0.92516800  1
  O  O69  1  0.71695000  0.60591400  0.61567000  1
  O  O70  1  0.87728000  0.81006400  0.75395800  1
  O  O71  1  0.58346500  0.20228200  0.25850100  1
  O  O72  1  0.61881700  0.20228200  0.74149900  1
  O  O73  1  0.93278400  0.81006400  0.24604200  1
  O  O74  1  0.88896400  0.60591400  0.38433000  1
  O  O75  1  0.79771800  0.41653500  0.07483200  1
  O  O76  1  0.89637700  0.59448200  0.93585800  1
  O  O77  1  0.79771800  0.38118300  0.59183500  1
  O  O78  1  0.69810500  0.10362300  0.60252400  1
  O  O79  1  0.71695000  0.11103600  0.05099700  1
  O  O80  1  0.88896400  0.28305000  0.28233700  1
  O  O81  1  0.89637700  0.30189500  0.73080900  1
  O  O82  1  0.87728000  0.06721600  0.91270900  1
  O  O83  1  0.93278400  0.12272000  0.42062500  1
