# generated using pymatgen
data_Li4Mn5Ni(PO4)6
_symmetry_space_group_name_H-M   'P 1'
_cell_length_a   8.49488600
_cell_length_b   8.59762353
_cell_length_c   8.60665834
_cell_angle_alpha   62.13432491
_cell_angle_beta   63.03357276
_cell_angle_gamma   63.82682486
_symmetry_Int_Tables_number   1
_chemical_formula_structural   Li4Mn5Ni(PO4)6
_chemical_formula_sum   'Li4 Mn5 Ni1 P6 O24'
_cell_volume   473.88023933
_cell_formula_units_Z   1
loop_
 _symmetry_equiv_pos_site_id
 _symmetry_equiv_pos_as_xyz
  1  'x, y, z'
loop_
 _atom_site_type_symbol
 _atom_site_label
 _atom_site_symmetry_multiplicity
 _atom_site_fract_x
 _atom_site_fract_y
 _atom_site_fract_z
 _atom_site_occupancy
  Li  Li0  1  0.74966900  0.14076700  0.35312100  1
  Li  Li1  1  0.23552100  0.84747100  0.65881300  1
  Li  Li2  1  0.65388300  0.24166100  0.84617900  1
  Li  Li3  1  0.85171700  0.65078200  0.24027000  1
  Mn  Mn4  1  0.00778100  0.00203000  0.99267400  1
  Mn  Mn5  1  0.35644700  0.35383500  0.35273100  1
  Mn  Mn6  1  0.48962100  0.51014400  0.50086900  1
  Mn  Mn7  1  0.14736200  0.14348200  0.14876800  1
  Mn  Mn8  1  0.65159700  0.65966100  0.65319000  1
  Ni  Ni9  1  0.84752800  0.84940400  0.85299300  1
  P  P10  1  0.05967800  0.75216500  0.44837500  1
  P  P11  1  0.43913300  0.05736000  0.75182100  1
  P  P12  1  0.74662600  0.44420200  0.05427400  1
  P  P13  1  0.24764800  0.54018500  0.96133600  1
  P  P14  1  0.56006500  0.95215700  0.24925700  1
  P  P15  1  0.95188100  0.24772200  0.54061700  1
  O  O16  1  0.45650200  0.90369000  0.69654400  1
  O  O17  1  0.68123300  0.47164700  0.90271300  1
  O  O18  1  0.90593000  0.69080600  0.46677200  1
  O  O19  1  0.06297300  0.92287700  0.25903200  1
  O  O20  1  0.02161600  0.81135300  0.60803800  1
  O  O21  1  0.24965400  0.60711600  0.42438600  1
  O  O22  1  0.25069100  0.08017700  0.90812000  1
  O  O23  1  0.43266800  0.24589600  0.58333600  1
  O  O24  1  0.17623100  0.38445500  0.00549400  1
  O  O25  1  0.59236400  0.41998000  0.25285100  1
  O  O26  1  0.09504100  0.73175300  0.94366400  1
  O  O27  1  0.39491600  0.00611200  0.19028700  1
  O  O28  1  0.60310300  0.02906700  0.80381800  1
  O  O29  1  0.89226100  0.24954800  0.08194700  1
  O  O30  1  0.39581200  0.56303200  0.76515400  1
  O  O31  1  0.80796100  0.60016200  0.02607900  1
  O  O32  1  0.57534600  0.75509400  0.40004300  1
  O  O33  1  0.74993300  0.92939100  0.08839400  1
  O  O34  1  0.76071700  0.39747000  0.56883600  1
  O  O35  1  0.96907400  0.18641900  0.39077700  1
  O  O36  1  0.94287400  0.09036000  0.73463800  1
  O  O37  1  0.11715500  0.31088900  0.48838100  1
  O  O38  1  0.31926200  0.50152300  0.11403300  1
  O  O39  1  0.55052100  0.09515400  0.31437500  1
