# generated using pymatgen
data_Li4CrP2O9
_symmetry_space_group_name_H-M   'P 1'
_cell_length_a   6.73253000
_cell_length_b   14.40646000
_cell_length_c   14.74933800
_cell_angle_alpha   90.00000000
_cell_angle_beta   90.00000000
_cell_angle_gamma   90.00000000
_symmetry_Int_Tables_number   1
_chemical_formula_structural   Li4CrP2O9
_chemical_formula_sum   'Li32 Cr8 P16 O72'
_cell_volume   1430.56667247
_cell_formula_units_Z   8
loop_
 _symmetry_equiv_pos_site_id
 _symmetry_equiv_pos_as_xyz
  1  'x, y, z'
loop_
 _atom_site_type_symbol
 _atom_site_label
 _atom_site_symmetry_multiplicity
 _atom_site_fract_x
 _atom_site_fract_y
 _atom_site_fract_z
 _atom_site_occupancy
  Li  Li0  1  0.22158500  0.99742200  0.00384100  1
  Li  Li1  1  0.72158500  0.50257800  0.00384100  1
  Li  Li2  1  0.75493000  0.75275900  0.02489100  1
  Li  Li3  1  0.25493000  0.74724100  0.02489100  1
  Li  Li4  1  0.99884600  0.37127000  0.12307700  1
  Li  Li5  1  0.49884600  0.12873000  0.12307700  1
  Li  Li6  1  0.80201600  0.98094700  0.22779600  1
  Li  Li7  1  0.30201600  0.51905300  0.22779600  1
  Li  Li8  1  0.80201600  0.48094700  0.27220400  1
  Li  Li9  1  0.30201600  0.01905300  0.27220400  1
  Li  Li10  1  0.99884600  0.87127000  0.37692300  1
  Li  Li11  1  0.49884600  0.62873000  0.37692300  1
  Li  Li12  1  0.75493000  0.25275900  0.47510900  1
  Li  Li13  1  0.25493000  0.24724100  0.47510900  1
  Li  Li14  1  0.22158500  0.49742200  0.49615900  1
  Li  Li15  1  0.72158500  0.00257800  0.49615900  1
  Li  Li16  1  0.27841500  0.99742200  0.50384100  1
  Li  Li17  1  0.77841500  0.50257800  0.50384100  1
  Li  Li18  1  0.74507000  0.75275900  0.52489100  1
  Li  Li19  1  0.24507000  0.74724100  0.52489100  1
  Li  Li20  1  0.50115400  0.37127000  0.62307700  1
  Li  Li21  1  0.00115400  0.12873000  0.62307700  1
  Li  Li22  1  0.69798400  0.98094700  0.72779600  1
  Li  Li23  1  0.19798400  0.51905300  0.72779600  1
  Li  Li24  1  0.69798400  0.48094700  0.77220400  1
  Li  Li25  1  0.19798400  0.01905300  0.77220400  1
  Li  Li26  1  0.50115400  0.87127000  0.87692300  1
  Li  Li27  1  0.00115400  0.62873000  0.87692300  1
  Li  Li28  1  0.74507000  0.25275900  0.97510900  1
  Li  Li29  1  0.24507000  0.24724100  0.97510900  1
  Li  Li30  1  0.27841500  0.49742200  0.99615900  1
  Li  Li31  1  0.77841500  0.00257800  0.99615900  1
  Cr  Cr32  1  0.24756400  0.75361100  0.23319200  1
  Cr  Cr33  1  0.74756400  0.74638900  0.23319200  1
  Cr  Cr34  1  0.24756400  0.25361100  0.26680800  1
  Cr  Cr35  1  0.74756400  0.24638900  0.26680800  1
  Cr  Cr36  1  0.25243600  0.75361100  0.73319200  1
  Cr  Cr37  1  0.75243600  0.74638900  0.73319200  1
  Cr  Cr38  1  0.25243600  0.25361100  0.76680800  1
  Cr  Cr39  1  0.75243600  0.24638900  0.76680800  1
  P  P40  1  0.50239800  0.89591800  0.11300100  1
  P  P41  1  0.00239800  0.60408200  0.11300100  1
  P  P42  1  0.49829000  0.36177400  0.11756100  1
  P  P43  1  0.99829000  0.13822600  0.11756100  1
  P  P44  1  0.49829000  0.86177400  0.38243900  1
  P  P45  1  0.99829000  0.63822600  0.38243900  1
  P  P46  1  0.50239800  0.39591800  0.38699900  1
  P  P47  1  0.00239800  0.10408200  0.38699900  1
  P  P48  1  0.99760200  0.89591800  0.61300100  1
  P  P49  1  0.49760200  0.60408200  0.61300100  1
  P  P50  1  0.00171000  0.36177400  0.61756100  1
  P  P51  1  0.50171000  0.13822600  0.61756100  1
  P  P52  1  0.00171000  0.86177400  0.88243900  1
  P  P53  1  0.50171000  0.63822600  0.88243900  1
  P  P54  1  0.99760200  0.39591800  0.88699900  1
  P  P55  1  0.49760200  0.10408200  0.88699900  1
  O  O56  1  0.50209300  0.91136700  0.00997900  1
  O  O57  1  0.00209300  0.58863300  0.00997900  1
  O  O58  1  0.99433300  0.21379400  0.04371500  1
  O  O59  1  0.49433300  0.28620600  0.04371500  1
  O  O60  1  0.49453800  0.46251500  0.08277400  1
  O  O61  1  0.99453800  0.03748500  0.08277400  1
  O  O62  1  0.31401900  0.83449800  0.13222900  1
  O  O63  1  0.81401900  0.66550200  0.13222900  1
  O  O64  1  0.69569400  0.83994500  0.13527800  1
  O  O65  1  0.19569400  0.66005500  0.13527800  1
  O  O66  1  0.50124300  0.98604300  0.16987900  1
  O  O67  1  0.00124300  0.51395700  0.16987900  1
  O  O68  1  0.69382700  0.35118800  0.17563400  1
  O  O69  1  0.19382700  0.14881200  0.17563400  1
  O  O70  1  0.30625500  0.35403000  0.17816000  1
  O  O71  1  0.80625500  0.14597000  0.17816000  1
  O  O72  1  0.99796300  0.79420600  0.24718400  1
  O  O73  1  0.49796300  0.70579400  0.24718400  1
  O  O74  1  0.99796300  0.29420600  0.25281600  1
  O  O75  1  0.49796300  0.20579400  0.25281600  1
  O  O76  1  0.30625500  0.85403000  0.32184000  1
  O  O77  1  0.80625500  0.64597000  0.32184000  1
  O  O78  1  0.69382700  0.85118800  0.32436600  1
  O  O79  1  0.19382700  0.64881200  0.32436600  1
  O  O80  1  0.50124300  0.48604300  0.33012100  1
  O  O81  1  0.00124300  0.01395700  0.33012100  1
  O  O82  1  0.69569400  0.33994500  0.36472200  1
  O  O83  1  0.19569400  0.16005500  0.36472200  1
  O  O84  1  0.31401900  0.33449800  0.36777100  1
  O  O85  1  0.81401900  0.16550200  0.36777100  1
  O  O86  1  0.49453800  0.96251500  0.41722600  1
  O  O87  1  0.99453800  0.53748500  0.41722600  1
  O  O88  1  0.49433300  0.78620600  0.45628500  1
  O  O89  1  0.99433300  0.71379400  0.45628500  1
  O  O90  1  0.50209300  0.41136700  0.49002100  1
  O  O91  1  0.00209300  0.08863300  0.49002100  1
  O  O92  1  0.99790700  0.91136700  0.50997900  1
  O  O93  1  0.49790700  0.58863300  0.50997900  1
  O  O94  1  0.00566700  0.28620600  0.54371500  1
  O  O95  1  0.50566700  0.21379400  0.54371500  1
  O  O96  1  0.00546200  0.46251500  0.58277400  1
  O  O97  1  0.50546200  0.03748500  0.58277400  1
  O  O98  1  0.18598100  0.83449800  0.63222900  1
  O  O99  1  0.68598100  0.66550200  0.63222900  1
  O  O100  1  0.80430600  0.83994500  0.63527800  1
  O  O101  1  0.30430600  0.66005500  0.63527800  1
  O  O102  1  0.99875700  0.98604300  0.66987900  1
  O  O103  1  0.49875700  0.51395700  0.66987900  1
  O  O104  1  0.80617300  0.35118800  0.67563400  1
  O  O105  1  0.30617300  0.14881200  0.67563400  1
  O  O106  1  0.19374500  0.35403000  0.67816000  1
  O  O107  1  0.69374500  0.14597000  0.67816000  1
  O  O108  1  0.50203700  0.79420600  0.74718400  1
  O  O109  1  0.00203700  0.70579400  0.74718400  1
  O  O110  1  0.50203700  0.29420600  0.75281600  1
  O  O111  1  0.00203700  0.20579400  0.75281600  1
  O  O112  1  0.19374500  0.85403000  0.82184000  1
  O  O113  1  0.69374500  0.64597000  0.82184000  1
  O  O114  1  0.80617300  0.85118800  0.82436600  1
  O  O115  1  0.30617300  0.64881200  0.82436600  1
  O  O116  1  0.99875700  0.48604300  0.83012100  1
  O  O117  1  0.49875700  0.01395700  0.83012100  1
  O  O118  1  0.80430600  0.33994500  0.86472200  1
  O  O119  1  0.30430600  0.16005500  0.86472200  1
  O  O120  1  0.18598100  0.33449800  0.86777100  1
  O  O121  1  0.68598100  0.16550200  0.86777100  1
  O  O122  1  0.00546200  0.96251500  0.91722600  1
  O  O123  1  0.50546200  0.53748500  0.91722600  1
  O  O124  1  0.00566700  0.78620600  0.95628500  1
  O  O125  1  0.50566700  0.71379400  0.95628500  1
  O  O126  1  0.99790700  0.41136700  0.99002100  1
  O  O127  1  0.49790700  0.08863300  0.99002100  1
