# generated using pymatgen
data_Li5V4(PO4)6
_symmetry_space_group_name_H-M   'P 1'
_cell_length_a   8.72200100
_cell_length_b   8.69187700
_cell_length_c   14.91104564
_cell_angle_alpha   54.78495847
_cell_angle_beta   90.00000000
_cell_angle_gamma   90.00000000
_symmetry_Int_Tables_number   1
_chemical_formula_structural   Li5V4(PO4)6
_chemical_formula_sum   'Li10 V8 P12 O48'
_cell_volume   923.54152534
_cell_formula_units_Z   2
loop_
 _symmetry_equiv_pos_site_id
 _symmetry_equiv_pos_as_xyz
  1  'x, y, z'
loop_
 _atom_site_type_symbol
 _atom_site_label
 _atom_site_symmetry_multiplicity
 _atom_site_fract_x
 _atom_site_fract_y
 _atom_site_fract_z
 _atom_site_occupancy
  Li  Li0  1  0.17615900  0.37464200  0.69984100  1
  Li  Li1  1  0.47213400  0.02974700  0.17958200  1
  Li  Li2  1  0.97271000  0.97330000  0.32179300  1
  Li  Li3  1  0.05189200  0.67955200  0.73930500  1
  Li  Li4  1  0.66093000  0.61132900  0.80447500  1
  Li  Li5  1  0.82384100  0.37464200  0.19984100  1
  Li  Li6  1  0.52786600  0.02974700  0.67958200  1
  Li  Li7  1  0.02729000  0.97330000  0.82179300  1
  Li  Li8  1  0.94810800  0.67955200  0.23930500  1
  Li  Li9  1  0.33907000  0.61132900  0.30447500  1
  V  V10  1  0.22163700  0.36053400  0.88995600  1
  V  V11  1  0.71290700  0.63020300  0.61000500  1
  V  V12  1  0.28868400  0.86655500  0.38723900  1
  V  V13  1  0.78846700  0.13670700  0.11080400  1
  V  V14  1  0.71131600  0.86655500  0.88723900  1
  V  V15  1  0.21153300  0.13670700  0.61080400  1
  V  V16  1  0.77836300  0.36053400  0.38995600  1
  V  V17  1  0.28709300  0.63020300  0.11000500  1
  P  P18  1  0.99931300  0.54500800  0.49283400  1
  P  P19  1  0.86506200  0.25741600  0.84893000  1
  P  P20  1  0.14802500  0.95495700  0.14807100  1
  P  P21  1  0.36691200  0.74961800  0.64604500  1
  P  P22  1  0.64527900  0.03944200  0.35469100  1
  P  P23  1  0.50098500  0.46035900  0.00460600  1
  P  P24  1  0.00068700  0.54500800  0.99283400  1
  P  P25  1  0.85197500  0.95495700  0.64807100  1
  P  P26  1  0.13493800  0.25741600  0.34893000  1
  P  P27  1  0.35472100  0.03944200  0.85469100  1
  P  P28  1  0.63308800  0.74961800  0.14604500  1
  P  P29  1  0.49901500  0.46035900  0.50460600  1
  O  O30  1  0.37949600  0.61473600  0.43427500  1
  O  O31  1  0.35731300  0.21056900  0.85965000  1
  O  O32  1  0.57391600  0.48997600  0.58840200  1
  O  O33  1  0.65497100  0.90259700  0.16754700  1
  O  O34  1  0.88039400  0.53855900  0.57201900  1
  O  O35  1  0.83219400  0.18408300  0.96862900  1
  O  O36  1  0.03630000  0.32031200  0.81919800  1
  O  O37  1  0.26860300  0.90503600  0.23855900  1
  O  O38  1  0.98480500  0.96623400  0.18690200  1
  O  O39  1  0.07668600  0.74008300  0.43079600  1
  O  O40  1  0.19733900  0.13600600  0.04289000  1
  O  O41  1  0.75755300  0.42928300  0.77310900  1
  O  O42  1  0.25158300  0.58539300  0.71910000  1
  O  O43  1  0.69803500  0.85747100  0.46443800  1
  O  O44  1  0.57803000  0.26475600  0.07256900  1
  O  O45  1  0.49017900  0.00838600  0.31888300  1
  O  O46  1  0.53833100  0.68651200  0.67554100  1
  O  O47  1  0.33455500  0.82382600  0.52722700  1
  O  O48  1  0.76917900  0.08537300  0.26550500  1
  O  O49  1  0.38515200  0.46980000  0.92476200  1
  O  O50  1  0.06982400  0.52483000  0.90459100  1
  O  O51  1  0.85852700  0.77967500  0.64383500  1
  O  O52  1  0.15697900  0.10108200  0.33049400  1
  O  O53  1  0.88700200  0.38465700  0.06895900  1
  O  O54  1  0.62050400  0.61473600  0.93427500  1
  O  O55  1  0.34502900  0.90259700  0.66754700  1
  O  O56  1  0.64268700  0.21056900  0.35965000  1
  O  O57  1  0.42608400  0.48997600  0.08840200  1
  O  O58  1  0.11960600  0.53855900  0.07201900  1
  O  O59  1  0.73139700  0.90503600  0.73855900  1
  O  O60  1  0.16780600  0.18408300  0.46862900  1
  O  O61  1  0.96370000  0.32031200  0.31919800  1
  O  O62  1  0.01519500  0.96623400  0.68690200  1
  O  O63  1  0.92331400  0.74008300  0.93079600  1
  O  O64  1  0.80266100  0.13600600  0.54289000  1
  O  O65  1  0.24244700  0.42928300  0.27310900  1
  O  O66  1  0.74841700  0.58539300  0.21910000  1
  O  O67  1  0.30196500  0.85747100  0.96443800  1
  O  O68  1  0.42197000  0.26475600  0.57256900  1
  O  O69  1  0.50982100  0.00838600  0.81888300  1
  O  O70  1  0.23082100  0.08537300  0.76550500  1
  O  O71  1  0.46166900  0.68651200  0.17554100  1
  O  O72  1  0.66544500  0.82382600  0.02722700  1
  O  O73  1  0.61484800  0.46980000  0.42476200  1
  O  O74  1  0.84302100  0.10108200  0.83049400  1
  O  O75  1  0.93017600  0.52483000  0.40459100  1
  O  O76  1  0.14147300  0.77967500  0.14383500  1
  O  O77  1  0.11299800  0.38465700  0.56895900  1
