# generated using pymatgen
data_Li5Fe(P2O7)2
_symmetry_space_group_name_H-M   'P 1'
_cell_length_a   7.01211200
_cell_length_b   8.71647817
_cell_length_c   9.19847623
_cell_angle_alpha   79.46107311
_cell_angle_beta   79.35164588
_cell_angle_gamma   70.05391703
_symmetry_Int_Tables_number   1
_chemical_formula_structural   Li5Fe(P2O7)2
_chemical_formula_sum   'Li10 Fe2 P8 O28'
_cell_volume   515.00259800
_cell_formula_units_Z   2
loop_
 _symmetry_equiv_pos_site_id
 _symmetry_equiv_pos_as_xyz
  1  'x, y, z'
loop_
 _atom_site_type_symbol
 _atom_site_label
 _atom_site_symmetry_multiplicity
 _atom_site_fract_x
 _atom_site_fract_y
 _atom_site_fract_z
 _atom_site_occupancy
  Li  Li0  1  0.30901600  0.17965400  0.27022500  1
  Li  Li1  1  0.26073200  0.25452300  0.57919400  1
  Li  Li2  1  0.75984700  0.27044200  0.10436500  1
  Li  Li3  1  0.04838300  0.51888300  0.14385800  1
  Li  Li4  1  0.42168900  0.48652500  0.34614800  1
  Li  Li5  1  0.57831100  0.51347500  0.65385200  1
  Li  Li6  1  0.95161700  0.48111700  0.85614200  1
  Li  Li7  1  0.24015300  0.72955800  0.89563500  1
  Li  Li8  1  0.73926800  0.74547700  0.42080600  1
  Li  Li9  1  0.69098400  0.82034600  0.72977500  1
  Fe  Fe10  1  0.85999600  0.13997200  0.75680200  1
  Fe  Fe11  1  0.14000400  0.86002800  0.24319800  1
  P  P12  1  0.17433100  0.10935800  0.97154300  1
  P  P13  1  0.70667800  0.09937800  0.45001000  1
  P  P14  1  0.40617700  0.34118700  0.94896800  1
  P  P15  1  0.87062600  0.37682900  0.43140600  1
  P  P16  1  0.12937400  0.62317100  0.56859400  1
  P  P17  1  0.59382300  0.65881300  0.05103200  1
  P  P18  1  0.29332200  0.90062200  0.54999000  1
  P  P19  1  0.82566900  0.89064200  0.02845700  1
  O  O20  1  0.17371500  0.05139000  0.62967300  1
  O  O21  1  0.11683100  0.11455400  0.14222300  1
  O  O22  1  0.76670600  0.06366000  0.05887000  1
  O  O23  1  0.72539700  0.06645700  0.61924100  1
  O  O24  1  0.00613000  0.23324200  0.87884000  1
  O  O25  1  0.48539300  0.18070100  0.42091400  1
  O  O26  1  0.36637100  0.17616100  0.91741900  1
  O  O27  1  0.07770200  0.37661800  0.34546800  1
  O  O28  1  0.44135300  0.32122000  0.11120000  1
  O  O29  1  0.82020400  0.23319900  0.37107200  1
  O  O30  1  0.59698500  0.33689900  0.83275300  1
  O  O31  1  0.87442000  0.32948500  0.60156100  1
  O  O32  1  0.21517300  0.49079900  0.91992900  1
  O  O33  1  0.30823100  0.46495400  0.59187200  1
  O  O34  1  0.69176900  0.53504600  0.40812800  1
  O  O35  1  0.78482700  0.50920100  0.08007100  1
  O  O36  1  0.12558000  0.67051500  0.39843900  1
  O  O37  1  0.40301500  0.66310100  0.16724700  1
  O  O38  1  0.17979600  0.76680100  0.62892800  1
  O  O39  1  0.55864700  0.67878000  0.88880000  1
  O  O40  1  0.92229800  0.62338200  0.65453200  1
  O  O41  1  0.63362900  0.82383900  0.08258100  1
  O  O42  1  0.51460700  0.81929900  0.57908600  1
  O  O43  1  0.99387000  0.76675800  0.12116000  1
  O  O44  1  0.27460300  0.93354300  0.38075900  1
  O  O45  1  0.23329400  0.93634000  0.94113000  1
  O  O46  1  0.88316900  0.88544600  0.85777700  1
  O  O47  1  0.82628500  0.94861000  0.37032700  1
