# generated using pymatgen
data_LiMnPO4
_symmetry_space_group_name_H-M   'P 1'
_cell_length_a   4.91070100
_cell_length_b   7.60109200
_cell_length_c   17.09333600
_cell_angle_alpha   90.00000000
_cell_angle_beta   90.00000000
_cell_angle_gamma   90.00000000
_symmetry_Int_Tables_number   1
_chemical_formula_structural   LiMnPO4
_chemical_formula_sum   'Li8 Mn8 P8 O32'
_cell_volume   638.03765540
_cell_formula_units_Z   8
loop_
 _symmetry_equiv_pos_site_id
 _symmetry_equiv_pos_as_xyz
  1  'x, y, z'
loop_
 _atom_site_type_symbol
 _atom_site_label
 _atom_site_symmetry_multiplicity
 _atom_site_fract_x
 _atom_site_fract_y
 _atom_site_fract_z
 _atom_site_occupancy
  Li  Li0  1  0.24291700  0.51245800  0.05285700  1
  Li  Li1  1  0.24291700  0.01245800  0.44714300  1
  Li  Li2  1  0.28816600  0.31816200  0.35681800  1
  Li  Li3  1  0.28816600  0.81816200  0.14318200  1
  Li  Li4  1  0.74291700  0.98754200  0.55285700  1
  Li  Li5  1  0.74291700  0.48754200  0.94714300  1
  Li  Li6  1  0.78816600  0.18183800  0.85681800  1
  Li  Li7  1  0.78816600  0.68183800  0.64318200  1
  Mn  Mn8  1  0.28922400  0.34122000  0.55208700  1
  Mn  Mn9  1  0.28922400  0.84122000  0.94791300  1
  Mn  Mn10  1  0.35830700  0.04056800  0.75276100  1
  Mn  Mn11  1  0.35830700  0.54056800  0.74723900  1
  Mn  Mn12  1  0.78922400  0.15878000  0.05208700  1
  Mn  Mn13  1  0.78922400  0.65878000  0.44791300  1
  Mn  Mn14  1  0.85830700  0.95943200  0.24723900  1
  Mn  Mn15  1  0.85830700  0.45943200  0.25276100  1
  P  P16  1  0.23743100  0.21474500  0.17413300  1
  P  P17  1  0.23743100  0.71474500  0.32586700  1
  P  P18  1  0.25247900  0.25961600  0.92547900  1
  P  P19  1  0.25247900  0.75961600  0.57452100  1
  P  P20  1  0.73743100  0.78525500  0.82586700  1
  P  P21  1  0.73743100  0.28525500  0.67413300  1
  P  P22  1  0.75247900  0.24038400  0.42547900  1
  P  P23  1  0.75247900  0.74038400  0.07452100  1
  O  O24  1  0.05054600  0.29420700  0.66332900  1
  O  O25  1  0.05054600  0.79420700  0.83667100  1
  O  O26  1  0.06179000  0.73923900  0.05465100  1
  O  O27  1  0.06179000  0.23923900  0.44534900  1
  O  O28  1  0.11748900  0.92997900  0.54536400  1
  O  O29  1  0.11748900  0.42997900  0.95463600  1
  O  O30  1  0.18794500  0.73795600  0.66369900  1
  O  O31  1  0.18794500  0.23795600  0.83630100  1
  O  O32  1  0.09503900  0.54307300  0.35624700  1
  O  O33  1  0.09503900  0.04307300  0.14375300  1
  O  O34  1  0.15020900  0.72679400  0.23877200  1
  O  O35  1  0.15020900  0.22679400  0.26122800  1
  O  O36  1  0.09581700  0.37207900  0.13262700  1
  O  O37  1  0.09581700  0.87207900  0.36737300  1
  O  O38  1  0.11472800  0.59850000  0.53229900  1
  O  O39  1  0.11472800  0.09850000  0.96770100  1
  O  O40  1  0.55054600  0.20579300  0.16332900  1
  O  O41  1  0.55054600  0.70579300  0.33667100  1
  O  O42  1  0.56179000  0.26076100  0.94534900  1
  O  O43  1  0.56179000  0.76076100  0.55465100  1
  O  O44  1  0.61748900  0.07002100  0.45463600  1
  O  O45  1  0.61748900  0.57002100  0.04536400  1
  O  O46  1  0.68794500  0.26204400  0.33630100  1
  O  O47  1  0.68794500  0.76204400  0.16369900  1
  O  O48  1  0.59503900  0.95692700  0.85624700  1
  O  O49  1  0.59503900  0.45692700  0.64375300  1
  O  O50  1  0.65020900  0.77320600  0.73877200  1
  O  O51  1  0.65020900  0.27320600  0.76122800  1
  O  O52  1  0.59581700  0.62792100  0.86737300  1
  O  O53  1  0.59581700  0.12792100  0.63262700  1
  O  O54  1  0.61472800  0.40150000  0.46770100  1
  O  O55  1  0.61472800  0.90150000  0.03229900  1
