# generated using pymatgen
data_Li9Si2Ni5O16
_symmetry_space_group_name_H-M   'P 1'
_cell_length_a   4.90327300
_cell_length_b   5.04339370
_cell_length_c   11.12028040
_cell_angle_alpha   80.81842385
_cell_angle_beta   85.46602872
_cell_angle_gamma   80.02979709
_symmetry_Int_Tables_number   1
_chemical_formula_structural   Li9Si2Ni5O16
_chemical_formula_sum   'Li9 Si2 Ni5 O16'
_cell_volume   266.99757645
_cell_formula_units_Z   1
loop_
 _symmetry_equiv_pos_site_id
 _symmetry_equiv_pos_as_xyz
  1  'x, y, z'
loop_
 _atom_site_type_symbol
 _atom_site_label
 _atom_site_symmetry_multiplicity
 _atom_site_fract_x
 _atom_site_fract_y
 _atom_site_fract_z
 _atom_site_occupancy
  Li  Li0  1  0.74093000  0.94785000  0.56021400  1
  Li  Li1  1  0.26115000  0.81268300  0.68416600  1
  Li  Li2  1  0.74263400  0.69198200  0.81424400  1
  Li  Li3  1  0.24328600  0.55708400  0.93705900  1
  Li  Li4  1  0.75671400  0.44291600  0.06294100  1
  Li  Li5  1  0.25736600  0.30801800  0.18575600  1
  Li  Li6  1  0.73885000  0.18731700  0.31583400  1
  Li  Li7  1  0.25907000  0.05215000  0.43978600  1
  Li  Li8  1  0.50000000  0.50000000  0.50000000  1
  Si  Si9  1  0.99916500  0.38224000  0.61959900  1
  Si  Si10  1  0.00083500  0.61776000  0.38040100  1
  Ni  Ni11  1  0.49958900  0.25812700  0.74314400  1
  Ni  Ni12  1  0.99930100  0.12830200  0.87296100  1
  Ni  Ni13  1  0.00069900  0.87169800  0.12703900  1
  Ni  Ni14  1  0.50000000  0.00000000  0.00000000  1
  Ni  Ni15  1  0.50041100  0.74187300  0.25685600  1
  O  O16  1  0.65884000  0.55951100  0.65570200  1
  O  O17  1  0.34178100  0.18240000  0.60174900  1
  O  O18  1  0.38700900  0.94127900  0.83436200  1
  O  O19  1  0.86467600  0.08594500  0.70343700  1
  O  O20  1  0.13480300  0.45912800  0.75634200  1
  O  O21  1  0.85571900  0.79550600  0.97005100  1
  O  O22  1  0.60809900  0.33375100  0.89203300  1
  O  O23  1  0.14428100  0.20449400  0.02994900  1
  O  O24  1  0.39190100  0.66624900  0.10796700  1
  O  O25  1  0.86519700  0.54087200  0.24365800  1
  O  O26  1  0.61299100  0.05872100  0.16563800  1
  O  O27  1  0.65821900  0.81760000  0.39825100  1
  O  O28  1  0.34116000  0.44048900  0.34429800  1
  O  O29  1  0.13532400  0.91405500  0.29656300  1
  O  O30  1  0.09313400  0.68575500  0.52635400  1
  O  O31  1  0.90686600  0.31424500  0.47364600  1
