# generated using pymatgen
data_LiMnPO4
_symmetry_space_group_name_H-M   'P 1'
_cell_length_a   8.59759193
_cell_length_b   8.59759193
_cell_length_c   7.48912000
_cell_angle_alpha   90.00000000
_cell_angle_beta   90.00000000
_cell_angle_gamma   119.99999944
_symmetry_Int_Tables_number   1
_chemical_formula_structural   LiMnPO4
_chemical_formula_sum   'Li6 Mn6 P6 O24'
_cell_volume   479.41882129
_cell_formula_units_Z   6
loop_
 _symmetry_equiv_pos_site_id
 _symmetry_equiv_pos_as_xyz
  1  'x, y, z'
loop_
 _atom_site_type_symbol
 _atom_site_label
 _atom_site_symmetry_multiplicity
 _atom_site_fract_x
 _atom_site_fract_y
 _atom_site_fract_z
 _atom_site_occupancy
  Li  Li0  1  0.01623200  0.67956600  0.41391000  1
  Li  Li1  1  0.32043400  0.33666500  0.41391000  1
  Li  Li2  1  0.66333500  0.98376800  0.41391000  1
  Li  Li3  1  0.33666500  0.01623200  0.91391000  1
  Li  Li4  1  0.67956600  0.66333500  0.91391000  1
  Li  Li5  1  0.98376800  0.32043400  0.91391000  1
  Mn  Mn6  1  0.33333300  0.66666700  0.27454300  1
  Mn  Mn7  1  0.33333300  0.66666700  0.69872600  1
  Mn  Mn8  1  0.00000000  0.00000000  0.19344000  1
  Mn  Mn9  1  0.00000000  0.00000000  0.69344000  1
  Mn  Mn10  1  0.66666700  0.33333300  0.77454300  1
  Mn  Mn11  1  0.66666700  0.33333300  0.19872600  1
  P  P12  1  0.03360500  0.68469300  0.00022200  1
  P  P13  1  0.31530700  0.34891200  0.00022200  1
  P  P14  1  0.65108800  0.96639500  0.00022200  1
  P  P15  1  0.34891200  0.03360500  0.50022200  1
  P  P16  1  0.68469300  0.65108800  0.50022200  1
  P  P17  1  0.96639500  0.31530700  0.50022200  1
  O  O18  1  0.13855000  0.93111100  0.49346200  1
  O  O19  1  0.13622800  0.72754700  0.17986500  1
  O  O20  1  0.17320100  0.75098300  0.84710500  1
  O  O21  1  0.10772200  0.52034800  0.48816900  1
  O  O22  1  0.41262600  0.89227800  0.48816900  1
  O  O23  1  0.06888900  0.20743900  0.49346200  1
  O  O24  1  0.24901700  0.42221800  0.84710500  1
  O  O25  1  0.27245300  0.40868100  0.17986500  1
  O  O26  1  0.20743900  0.13855000  0.99346200  1
  O  O27  1  0.59131900  0.86377200  0.17986500  1
  O  O28  1  0.57778200  0.82679900  0.84710500  1
  O  O29  1  0.47965200  0.58737400  0.48816900  1
  O  O30  1  0.52034800  0.41262600  0.98816900  1
  O  O31  1  0.42221800  0.17320100  0.34710500  1
  O  O32  1  0.40868100  0.13622800  0.67986500  1
  O  O33  1  0.79256100  0.86145000  0.49346200  1
  O  O34  1  0.72754700  0.59131900  0.67986500  1
  O  O35  1  0.75098300  0.57778200  0.34710500  1
  O  O36  1  0.93111100  0.79256100  0.99346200  1
  O  O37  1  0.58737400  0.10772200  0.98816900  1
  O  O38  1  0.89227800  0.47965200  0.98816900  1
  O  O39  1  0.82679900  0.24901700  0.34710500  1
  O  O40  1  0.86377200  0.27245300  0.67986500  1
  O  O41  1  0.86145000  0.06888900  0.99346200  1
