# generated using pymatgen
data_LiV2(PO4)3
_symmetry_space_group_name_H-M   'P 1'
_cell_length_a   8.57074400
_cell_length_b   8.53684500
_cell_length_c   14.81507883
_cell_angle_alpha   54.96063502
_cell_angle_beta   90.00000000
_cell_angle_gamma   90.00000000
_symmetry_Int_Tables_number   1
_chemical_formula_structural   LiV2(PO4)3
_chemical_formula_sum   'Li4 V8 P12 O48'
_cell_volume   887.51422793
_cell_formula_units_Z   4
loop_
 _symmetry_equiv_pos_site_id
 _symmetry_equiv_pos_as_xyz
  1  'x, y, z'
loop_
 _atom_site_type_symbol
 _atom_site_label
 _atom_site_symmetry_multiplicity
 _atom_site_fract_x
 _atom_site_fract_y
 _atom_site_fract_z
 _atom_site_occupancy
  Li  Li0  1  0.08865300  0.22796500  0.70309100  1
  Li  Li1  1  0.58865300  0.77203500  0.79690900  1
  Li  Li2  1  0.41134700  0.22796500  0.20309100  1
  Li  Li3  1  0.91134700  0.77203500  0.29690900  1
  V  V4  1  0.03242400  0.85708100  0.88884400  1
  V  V5  1  0.53242400  0.14291900  0.61115600  1
  V  V6  1  0.96879900  0.35900200  0.38342800  1
  V  V7  1  0.46879900  0.64099800  0.11657200  1
  V  V8  1  0.53120100  0.35900200  0.88342800  1
  V  V9  1  0.03120100  0.64099800  0.61657200  1
  V  V10  1  0.46757600  0.85708100  0.38884400  1
  V  V11  1  0.96757600  0.14291900  0.11115600  1
  P  P12  1  0.24755100  0.47139000  0.49460400  1
  P  P13  1  0.39095000  0.03569300  0.85383900  1
  P  P14  1  0.10901100  0.74823900  0.14452900  1
  P  P15  1  0.89095000  0.96430700  0.64616100  1
  P  P16  1  0.60901100  0.25176100  0.35547100  1
  P  P17  1  0.74755100  0.52861000  0.00539600  1
  P  P18  1  0.25244900  0.47139000  0.99460400  1
  P  P19  1  0.39098900  0.74823900  0.64452900  1
  P  P20  1  0.10905000  0.03569300  0.35383900  1
  P  P21  1  0.89098900  0.25176100  0.85547100  1
  P  P22  1  0.60905000  0.96430700  0.14616100  1
  P  P23  1  0.75244900  0.52861000  0.50539600  1
  O  O24  1  0.86689500  0.51412500  0.42982100  1
  O  O25  1  0.89694400  0.05704100  0.86910400  1
  O  O26  1  0.67571200  0.33362100  0.59177200  1
  O  O27  1  0.57763200  0.76566800  0.17049100  1
  O  O28  1  0.36270700  0.31505900  0.57577200  1
  O  O29  1  0.43036500  0.87316300  0.97236500  1
  O  O30  1  0.21351500  0.03576300  0.83065200  1
  O  O31  1  0.99814400  0.61481900  0.24158000  1
  O  O32  1  0.27721100  0.66791000  0.17192900  1
  O  O33  1  0.16000400  0.40164800  0.43298700  1
  O  O34  1  0.05453700  0.76819400  0.04020500  1
  O  O35  1  0.49270300  0.01265900  0.77516500  1
  O  O36  1  0.99270300  0.98734100  0.72483500  1
  O  O37  1  0.55453700  0.23180600  0.45979500  1
  O  O38  1  0.66000400  0.59835200  0.06701300  1
  O  O39  1  0.77721100  0.33209000  0.32807100  1
  O  O40  1  0.71351500  0.96423700  0.66934800  1
  O  O41  1  0.93036500  0.12683700  0.52763500  1
  O  O42  1  0.49814400  0.38518100  0.25842000  1
  O  O43  1  0.86270700  0.68494100  0.92422800  1
  O  O44  1  0.17571200  0.66637900  0.90822800  1
  O  O45  1  0.39694400  0.94295900  0.63089600  1
  O  O46  1  0.07763200  0.23433200  0.32950900  1
  O  O47  1  0.36689500  0.48587500  0.07017900  1
  O  O48  1  0.63310500  0.51412500  0.92982100  1
  O  O49  1  0.92236800  0.76566800  0.67049100  1
  O  O50  1  0.60305600  0.05704100  0.36910400  1
  O  O51  1  0.82428800  0.33362100  0.09177200  1
  O  O52  1  0.13729300  0.31505900  0.07577200  1
  O  O53  1  0.50185600  0.61481900  0.74158000  1
  O  O54  1  0.06963500  0.87316300  0.47236500  1
  O  O55  1  0.28648500  0.03576300  0.33065200  1
  O  O56  1  0.22278900  0.66791000  0.67192900  1
  O  O57  1  0.33999600  0.40164800  0.93298700  1
  O  O58  1  0.44546300  0.76819400  0.54020500  1
  O  O59  1  0.00729700  0.01265900  0.27516500  1
  O  O60  1  0.50729700  0.98734100  0.22483500  1
  O  O61  1  0.94546300  0.23180600  0.95979500  1
  O  O62  1  0.83999600  0.59835200  0.56701300  1
  O  O63  1  0.72278900  0.33209000  0.82807100  1
  O  O64  1  0.00185600  0.38518100  0.75842000  1
  O  O65  1  0.78648500  0.96423700  0.16934800  1
  O  O66  1  0.56963500  0.12683700  0.02763500  1
  O  O67  1  0.63729300  0.68494100  0.42422800  1
  O  O68  1  0.42236800  0.23433200  0.82950900  1
  O  O69  1  0.32428800  0.66637900  0.40822800  1
  O  O70  1  0.10305600  0.94295900  0.13089600  1
  O  O71  1  0.13310500  0.48587500  0.57017900  1
