# generated using pymatgen
data_LiNiPO4
_symmetry_space_group_name_H-M   'P 1'
_cell_length_a   9.64312146
_cell_length_b   9.64312146
_cell_length_c   22.66705400
_cell_angle_alpha   90.00000000
_cell_angle_beta   90.00000000
_cell_angle_gamma   119.99999629
_symmetry_Int_Tables_number   1
_chemical_formula_structural   LiNiPO4
_chemical_formula_sum   'Li24 Ni24 P24 O96'
_cell_volume   1825.41241973
_cell_formula_units_Z   24
loop_
 _symmetry_equiv_pos_site_id
 _symmetry_equiv_pos_as_xyz
  1  'x, y, z'
loop_
 _atom_site_type_symbol
 _atom_site_label
 _atom_site_symmetry_multiplicity
 _atom_site_fract_x
 _atom_site_fract_y
 _atom_site_fract_z
 _atom_site_occupancy
  Li  Li0  1  0.10126000  0.81739900  0.27787900  1
  Li  Li1  1  0.09174900  0.75897300  0.91947100  1
  Li  Li2  1  0.13015100  0.75940600  0.59608100  1
  Li  Li3  1  0.30763400  0.66516500  0.75411500  1
  Li  Li4  1  0.33483500  0.64246900  0.08744900  1
  Li  Li5  1  0.35753100  0.69236600  0.42078200  1
  Li  Li6  1  0.18260100  0.28386100  0.61121200  1
  Li  Li7  1  0.24059400  0.37074500  0.92941400  1
  Li  Li8  1  0.24102700  0.33277600  0.25280500  1
  Li  Li9  1  0.62925500  0.86984900  0.26274800  1
  Li  Li10  1  0.66722400  0.90825100  0.58613800  1
  Li  Li11  1  0.28386100  0.10126000  0.44454500  1
  Li  Li12  1  0.71613900  0.89874000  0.94454500  1
  Li  Li13  1  0.33277600  0.09174900  0.08613800  1
  Li  Li14  1  0.37074500  0.13015100  0.76274800  1
  Li  Li15  1  0.75897300  0.66722400  0.75280500  1
  Li  Li16  1  0.75940600  0.62925500  0.42941400  1
  Li  Li17  1  0.81739900  0.71613900  0.11121200  1
  Li  Li18  1  0.64246900  0.30763400  0.92078200  1
  Li  Li19  1  0.66516500  0.35753100  0.58744900  1
  Li  Li20  1  0.69236600  0.33483500  0.25411500  1
  Li  Li21  1  0.86984900  0.24059400  0.09608100  1
  Li  Li22  1  0.90825100  0.24102700  0.41947100  1
  Li  Li23  1  0.89874000  0.18260100  0.77787900  1
  Ni  Ni24  1  0.99274500  0.02318600  0.71360500  1
  Ni  Ni25  1  0.02136500  0.56593200  0.04548900  1
  Ni  Ni26  1  0.05102900  0.46277600  0.19243300  1
  Ni  Ni27  1  0.05751800  0.49788400  0.85153900  1
  Ni  Ni28  1  0.41174700  0.94897100  0.85910000  1
  Ni  Ni29  1  0.44036600  0.94248200  0.51820500  1
  Ni  Ni30  1  0.97681400  0.96956000  0.04693900  1
  Ni  Ni31  1  0.96956000  0.99274500  0.88027200  1
  Ni  Ni32  1  0.54456700  0.97863500  0.71215600  1
  Ni  Ni33  1  0.43406800  0.45543300  0.37882200  1
  Ni  Ni34  1  0.50211600  0.55963400  0.18487200  1
  Ni  Ni35  1  0.53722400  0.58825300  0.52576700  1
  Ni  Ni36  1  0.46277600  0.41174700  0.02576700  1
  Ni  Ni37  1  0.49788400  0.44036600  0.68487200  1
  Ni  Ni38  1  0.56593200  0.54456700  0.87882200  1
  Ni  Ni39  1  0.45543300  0.02136500  0.21215600  1
  Ni  Ni40  1  0.03044000  0.00725500  0.38027200  1
  Ni  Ni41  1  0.02318600  0.03044000  0.54693900  1
  Ni  Ni42  1  0.55963400  0.05751800  0.01820500  1
  Ni  Ni43  1  0.58825300  0.05102900  0.35910000  1
  Ni  Ni44  1  0.94248200  0.50211600  0.35153900  1
  Ni  Ni45  1  0.94897100  0.53722400  0.69243300  1
  Ni  Ni46  1  0.97863500  0.43406800  0.54548900  1
  Ni  Ni47  1  0.00725500  0.97681400  0.21360500  1
  P  P48  1  0.08970700  0.79170700  0.78813500  1
  P  P49  1  0.08238100  0.75407600  0.46884400  1
  P  P50  1  0.13986100  0.79348300  0.13758700  1
  P  P51  1  0.28838200  0.65112200  0.29222400  1
  P  P52  1  0.36274100  0.71161800  0.95889100  1
  P  P53  1  0.34887800  0.63725900  0.62555700  1
  P  P54  1  0.20651700  0.34637800  0.47092100  1
  P  P55  1  0.20829300  0.29800000  0.12146800  1
  P  P56  1  0.24592400  0.32830400  0.80217800  1
  P  P57  1  0.65362200  0.86013900  0.80425400  1
  P  P58  1  0.67169600  0.91761900  0.13551100  1
  P  P59  1  0.70200000  0.91029300  0.45480200  1
  P  P60  1  0.29800000  0.08970700  0.95480200  1
  P  P61  1  0.32830400  0.08238100  0.63551100  1
  P  P62  1  0.34637800  0.13986100  0.30425400  1
  P  P63  1  0.75407600  0.67169600  0.30217800  1
  P  P64  1  0.79170700  0.70200000  0.62146800  1
  P  P65  1  0.79348300  0.65362200  0.97092100  1
  P  P66  1  0.65112200  0.36274100  0.12555700  1
  P  P67  1  0.63725900  0.28838200  0.45889100  1
  P  P68  1  0.71161800  0.34887800  0.79222400  1
  P  P69  1  0.86013900  0.20651700  0.63758700  1
  P  P70  1  0.91761900  0.24592400  0.96884400  1
  P  P71  1  0.91029300  0.20829300  0.28813500  1
  O  O72  1  0.05040800  0.79453300  0.08038100  1
  O  O73  1  0.07858100  0.91722000  0.47403200  1
  O  O74  1  0.01182300  0.67915400  0.84157100  1
  O  O75  1  0.12746400  0.97264000  0.93051900  1
  O  O76  1  0.03689400  0.79044300  0.19064900  1
  O  O77  1  0.01411600  0.65577600  0.52545100  1
  O  O78  1  0.24372500  0.94282300  0.80799900  1
  O  O79  1  0.12617700  0.64643100  0.30120900  1
  O  O80  1  0.12216000  0.69413000  0.74132100  1
  O  O81  1  0.31321400  0.97498500  0.58189000  1
  O  O82  1  0.31494700  0.93134500  0.13976500  1
  O  O83  1  0.14517400  0.63317800  0.13291400  1
  O  O84  1  0.25985200  0.79700200  0.46086300  1
  O  O85  1  0.17243900  0.58755200  0.61181200  1
  O  O86  1  0.06865500  0.38360300  0.47309900  1
  O  O87  1  0.27469300  0.73207900  0.90367200  1
  O  O88  1  0.02501500  0.33822900  0.91522300  1
  O  O89  1  0.05717700  0.30090200  0.14133200  1
  O  O90  1  0.02736000  0.15482400  0.26385200  1
  O  O91  1  0.08278000  0.16136100  0.80736600  1
  O  O92  1  0.25486900  0.66908100  0.01349300  1
  O  O93  1  0.26792100  0.54261300  0.23700500  1
  O  O94  1  0.33091900  0.58578800  0.34682600  1
  O  O95  1  0.20299800  0.46285100  0.79419700  1
  O  O96  1  0.41421200  0.74513100  0.68015900  1
  O  O97  1  0.41511300  0.82756100  0.27847800  1
  O  O98  1  0.48800300  0.85482600  0.79958100  1
  O  O99  1  0.30587000  0.42803100  0.07465400  1
  O  O100  1  0.35356900  0.47974600  0.63454300  1
  O  O101  1  0.36682200  0.51199700  0.46624700  1
  O  O102  1  0.20955700  0.24645100  0.52398200  1
  O  O103  1  0.41244800  0.58488700  0.94514500  1
  O  O104  1  0.45738700  0.72530700  0.57033900  1
  O  O105  1  0.52025400  0.87382300  0.96787600  1
  O  O106  1  0.57196900  0.87784000  0.40798700  1
  O  O107  1  0.15482400  0.12746400  0.09718500  1
  O  O108  1  0.20546700  0.25587500  0.41371500  1
  O  O109  1  0.32084600  0.33266900  0.17490500  1
  O  O110  1  0.16136100  0.07858100  0.64069900  1
  O  O111  1  0.34422400  0.35834000  0.85878400  1
  O  O112  1  0.53714900  0.74014800  0.12753000  1
  O  O113  1  0.30090200  0.24372500  0.97466500  1
  O  O114  1  0.64166000  0.98588400  0.19211800  1
  O  O115  1  0.33822900  0.31321400  0.74855600  1
  O  O116  1  0.38360300  0.31494700  0.30643200  1
  O  O117  1  0.66733100  0.98817700  0.50823800  1
  O  O118  1  0.75354900  0.96310600  0.85731600  1
  O  O119  1  0.25587500  0.05040800  0.24704800  1
  O  O120  1  0.74412500  0.94959200  0.74704800  1
  O  O121  1  0.24645100  0.03689400  0.35731600  1
  O  O122  1  0.33266900  0.01182300  0.00823800  1
  O  O123  1  0.61639700  0.68505300  0.80643200  1
  O  O124  1  0.66177100  0.68678600  0.24855600  1
  O  O125  1  0.35834000  0.01411600  0.69211800  1
  O  O126  1  0.69909800  0.75627500  0.47466500  1
  O  O127  1  0.46285100  0.25985200  0.62753000  1
  O  O128  1  0.65577600  0.64166000  0.35878400  1
  O  O129  1  0.83863900  0.92141900  0.14069900  1
  O  O130  1  0.67915400  0.66733100  0.67490500  1
  O  O131  1  0.79453300  0.74412500  0.91371500  1
  O  O132  1  0.84517600  0.87253600  0.59718500  1
  O  O133  1  0.42803100  0.12216000  0.90798700  1
  O  O134  1  0.47974600  0.12617700  0.46787600  1
  O  O135  1  0.54261300  0.27469300  0.07033900  1
  O  O136  1  0.58755200  0.41511300  0.44514500  1
  O  O137  1  0.79044300  0.75354900  0.02398200  1
  O  O138  1  0.63317800  0.48800300  0.96624700  1
  O  O139  1  0.64643100  0.52025400  0.13454300  1
  O  O140  1  0.69413000  0.57196900  0.57465400  1
  O  O141  1  0.51199700  0.14517400  0.29958100  1
  O  O142  1  0.58488700  0.17243900  0.77847800  1
  O  O143  1  0.58578800  0.25486900  0.18015900  1
  O  O144  1  0.79700200  0.53714900  0.29419700  1
  O  O145  1  0.66908100  0.41421200  0.84682600  1
  O  O146  1  0.73207900  0.45738700  0.73700500  1
  O  O147  1  0.74513100  0.33091900  0.51349300  1
  O  O148  1  0.91722000  0.83863900  0.30736600  1
  O  O149  1  0.97264000  0.84517600  0.76385200  1
  O  O150  1  0.94282300  0.69909800  0.64133200  1
  O  O151  1  0.97498500  0.66177100  0.41522300  1
  O  O152  1  0.72530700  0.26792100  0.40367200  1
  O  O153  1  0.93134500  0.61639700  0.97309900  1
  O  O154  1  0.82756100  0.41244800  0.11181200  1
  O  O155  1  0.74014800  0.20299800  0.96086300  1
  O  O156  1  0.85482600  0.36682200  0.63291400  1
  O  O157  1  0.68505300  0.06865500  0.63976500  1
  O  O158  1  0.68678600  0.02501500  0.08189000  1
  O  O159  1  0.87784000  0.30587000  0.24132100  1
  O  O160  1  0.87382300  0.35356900  0.80120900  1
  O  O161  1  0.75627500  0.05717700  0.30799900  1
  O  O162  1  0.98588400  0.34422400  0.02545100  1
  O  O163  1  0.96310600  0.20955700  0.69064900  1
  O  O164  1  0.87253600  0.02736000  0.43051900  1
  O  O165  1  0.98817700  0.32084600  0.34157100  1
  O  O166  1  0.92141900  0.08278000  0.97403200  1
  O  O167  1  0.94959200  0.20546700  0.58038100  1
