# generated using pymatgen
data_Li4Ti3Ni3(SnO8)2
_symmetry_space_group_name_H-M   'P 1'
_cell_length_a   5.91934600
_cell_length_b   5.95466022
_cell_length_c   9.75763081
_cell_angle_alpha   89.60401739
_cell_angle_beta   89.49425302
_cell_angle_gamma   60.30810847
_symmetry_Int_Tables_number   1
_chemical_formula_structural   Li4Ti3Ni3(SnO8)2
_chemical_formula_sum   'Li4 Ti3 Ni3 Sn2 O16'
_cell_volume   298.76309668
_cell_formula_units_Z   1
loop_
 _symmetry_equiv_pos_site_id
 _symmetry_equiv_pos_as_xyz
  1  'x, y, z'
loop_
 _atom_site_type_symbol
 _atom_site_label
 _atom_site_symmetry_multiplicity
 _atom_site_fract_x
 _atom_site_fract_y
 _atom_site_fract_z
 _atom_site_occupancy
  Li  Li0  1  0.66659300  0.66794100  0.89252700  1
  Li  Li1  1  0.01279800  0.99739200  0.99262000  1
  Li  Li2  1  0.00261400  0.00007800  0.49437300  1
  Li  Li3  1  0.33484800  0.32770500  0.39889500  1
  Ti  Ti4  1  0.82386000  0.34045000  0.21646300  1
  Ti  Ti5  1  0.82960700  0.82979700  0.21431700  1
  Ti  Ti6  1  0.66113100  0.16274800  0.71485600  1
  Ni  Ni7  1  0.34262100  0.82925200  0.21308400  1
  Ni  Ni8  1  0.17057400  0.16857600  0.71126300  1
  Ni  Ni9  1  0.17081400  0.65944400  0.71549300  1
  Sn  Sn10  1  0.65850800  0.66950900  0.49416600  1
  Sn  Sn11  1  0.32024100  0.34039100  0.98849900  1
  O  O12  1  0.82042700  0.32512100  0.59787800  1
  O  O13  1  0.96659100  0.51744800  0.33485400  1
  O  O14  1  0.69105400  0.65472000  0.10349200  1
  O  O15  1  0.98809200  0.00591800  0.30729200  1
  O  O16  1  0.99598500  0.02503900  0.80733800  1
  O  O17  1  0.84481300  0.83296700  0.60601500  1
  O  O18  1  0.52905800  0.50397800  0.34160400  1
  O  O19  1  0.53288000  0.96166400  0.34343500  1
  O  O20  1  0.66837000  0.16775100  0.10311800  1
  O  O21  1  0.31269600  0.84365800  0.60360000  1
  O  O22  1  0.50363400  0.03396100  0.84418300  1
  O  O23  1  0.47234700  0.49256800  0.83362000  1
  O  O24  1  0.34406800  0.30748700  0.60654100  1
  O  O25  1  0.14988200  0.17287900  0.10055900  1
  O  O26  1  0.03611800  0.48123900  0.82922300  1
  O  O27  1  0.14977400  0.68002000  0.09853000  1
