# generated using pymatgen
data_Li5(BiO3)4
_symmetry_space_group_name_H-M   'P 1'
_cell_length_a   5.51576900
_cell_length_b   10.24195929
_cell_length_c   10.76922911
_cell_angle_alpha   74.36277148
_cell_angle_beta   77.81052785
_cell_angle_gamma   79.55309452
_symmetry_Int_Tables_number   1
_chemical_formula_structural   Li5(BiO3)4
_chemical_formula_sum   'Li10 Bi8 O24'
_cell_volume   567.62835184
_cell_formula_units_Z   2
loop_
 _symmetry_equiv_pos_site_id
 _symmetry_equiv_pos_as_xyz
  1  'x, y, z'
loop_
 _atom_site_type_symbol
 _atom_site_label
 _atom_site_symmetry_multiplicity
 _atom_site_fract_x
 _atom_site_fract_y
 _atom_site_fract_z
 _atom_site_occupancy
  Li  Li0  1  0.23785200  0.10412700  0.26704600  1
  Li  Li1  1  0.21062500  0.10644500  0.68233200  1
  Li  Li2  1  0.20298300  0.24915700  0.94747800  1
  Li  Li3  1  0.15908800  0.60955700  0.81446000  1
  Li  Li4  1  0.43427900  0.40245200  0.62481700  1
  Li  Li5  1  0.56572100  0.59754800  0.37518300  1
  Li  Li6  1  0.84091200  0.39044300  0.18554000  1
  Li  Li7  1  0.79701700  0.75084300  0.05252200  1
  Li  Li8  1  0.78937500  0.89355500  0.31766800  1
  Li  Li9  1  0.76214800  0.89587300  0.73295400  1
  Bi  Bi10  1  0.13917100  0.39107200  0.40806300  1
  Bi  Bi11  1  0.33071900  0.57452400  0.11090900  1
  Bi  Bi12  1  0.27011600  0.90991400  0.02227800  1
  Bi  Bi13  1  0.27804900  0.89208300  0.52453100  1
  Bi  Bi14  1  0.72195100  0.10791700  0.47546900  1
  Bi  Bi15  1  0.72988400  0.09008600  0.97772200  1
  Bi  Bi16  1  0.66928100  0.42547600  0.88909100  1
  Bi  Bi17  1  0.86082900  0.60892800  0.59193700  1
  O  O18  1  0.99947300  0.25422300  0.33160700  1
  O  O19  1  0.28959100  0.43877700  0.99638800  1
  O  O20  1  0.35661900  0.07906300  0.08627500  1
  O  O21  1  0.10966100  0.07329000  0.87494100  1
  O  O22  1  0.01401400  0.45569600  0.76223000  1
  O  O23  1  0.02005000  0.96468600  0.38389500  1
  O  O24  1  0.35995400  0.25878000  0.54391300  1
  O  O25  1  0.22266000  0.55475000  0.48108500  1
  O  O26  1  0.50425700  0.03451900  0.36678500  1
  O  O27  1  0.16817300  0.74082800  0.96622800  1
  O  O28  1  0.48362200  0.43339900  0.26898300  1
  O  O29  1  0.43346800  0.74561800  0.16430400  1
  O  O30  1  0.56653200  0.25438200  0.83569600  1
  O  O31  1  0.51637800  0.56660100  0.73101700  1
  O  O32  1  0.83182700  0.25917200  0.03377200  1
  O  O33  1  0.49574300  0.96548100  0.63321500  1
  O  O34  1  0.77734000  0.44525000  0.51891500  1
  O  O35  1  0.64004600  0.74122000  0.45608700  1
  O  O36  1  0.97995000  0.03531400  0.61610500  1
  O  O37  1  0.98598600  0.54430400  0.23777000  1
  O  O38  1  0.89033900  0.92671000  0.12505900  1
  O  O39  1  0.64338100  0.92093700  0.91372500  1
  O  O40  1  0.71040900  0.56122300  0.00361200  1
  O  O41  1  0.00052700  0.74577700  0.66839300  1
