# generated using pymatgen
data_Li2SiNiO4
_symmetry_space_group_name_H-M   'P 1'
_cell_length_a   4.96235100
_cell_length_b   6.22173100
_cell_length_c   10.92235900
_cell_angle_alpha   90.00000000
_cell_angle_beta   90.00000000
_cell_angle_gamma   90.00000000
_symmetry_Int_Tables_number   1
_chemical_formula_structural   Li2SiNiO4
_chemical_formula_sum   'Li8 Si4 Ni4 O16'
_cell_volume   337.22142324
_cell_formula_units_Z   4
loop_
 _symmetry_equiv_pos_site_id
 _symmetry_equiv_pos_as_xyz
  1  'x, y, z'
loop_
 _atom_site_type_symbol
 _atom_site_label
 _atom_site_symmetry_multiplicity
 _atom_site_fract_x
 _atom_site_fract_y
 _atom_site_fract_z
 _atom_site_occupancy
  Li  Li0  1  0.75578000  0.99807200  0.67484700  1
  Li  Li1  1  0.75601300  0.25691200  0.41185300  1
  Li  Li2  1  0.75601300  0.24308800  0.91185300  1
  Li  Li3  1  0.75578000  0.50192800  0.17484700  1
  Li  Li4  1  0.25578000  0.49807200  0.82515300  1
  Li  Li5  1  0.25601300  0.75691200  0.08814700  1
  Li  Li6  1  0.25601300  0.74308800  0.58814700  1
  Li  Li7  1  0.25578000  0.00192800  0.32515300  1
  Si  Si8  1  0.26438100  0.99758200  0.83541700  1
  Si  Si9  1  0.26438100  0.50241800  0.33541700  1
  Si  Si10  1  0.76438100  0.49758200  0.66458300  1
  Si  Si11  1  0.76438100  0.00241800  0.16458300  1
  Ni  Ni12  1  0.25351300  0.25618400  0.08202400  1
  Ni  Ni13  1  0.25351300  0.24381600  0.58202400  1
  Ni  Ni14  1  0.75351300  0.75618400  0.41797600  1
  Ni  Ni15  1  0.75351300  0.74381600  0.91797600  1
  O  O16  1  0.09722100  0.00605100  0.16385400  1
  O  O17  1  0.15944300  0.00134100  0.69158300  1
  O  O18  1  0.16139600  0.28230100  0.40699900  1
  O  O19  1  0.65536500  0.22230200  0.09345000  1
  O  O20  1  0.65536500  0.27769800  0.59345000  1
  O  O21  1  0.16139600  0.21769900  0.90699900  1
  O  O22  1  0.15944300  0.49865900  0.19158300  1
  O  O23  1  0.09722100  0.49394900  0.66385400  1
  O  O24  1  0.59722100  0.50605100  0.33614600  1
  O  O25  1  0.65944300  0.50134100  0.80841700  1
  O  O26  1  0.66139600  0.78230100  0.09300100  1
  O  O27  1  0.15536500  0.72230200  0.40655000  1
  O  O28  1  0.15536500  0.77769800  0.90655000  1
  O  O29  1  0.66139600  0.71769900  0.59300100  1
  O  O30  1  0.65944300  0.99865900  0.30841700  1
  O  O31  1  0.59722100  0.99394900  0.83614600  1
