# generated using pymatgen
data_LiMn2(BO3)2
_symmetry_space_group_name_H-M   'P 1'
_cell_length_a   5.28010100
_cell_length_b   5.79102001
_cell_length_c   20.48656650
_cell_angle_alpha   86.74111740
_cell_angle_beta   82.77740991
_cell_angle_gamma   89.51671677
_symmetry_Int_Tables_number   1
_chemical_formula_structural   LiMn2(BO3)2
_chemical_formula_sum   'Li5 Mn10 B10 O30'
_cell_volume   620.44522446
_cell_formula_units_Z   5
loop_
 _symmetry_equiv_pos_site_id
 _symmetry_equiv_pos_as_xyz
  1  'x, y, z'
loop_
 _atom_site_type_symbol
 _atom_site_label
 _atom_site_symmetry_multiplicity
 _atom_site_fract_x
 _atom_site_fract_y
 _atom_site_fract_z
 _atom_site_occupancy
  Li  Li0  1  0.39182800  0.89021600  0.89470000  1
  Li  Li1  1  0.80868700  0.91403400  0.70897000  1
  Li  Li2  1  0.01378300  0.71653700  0.31080000  1
  Li  Li3  1  0.41381600  0.31689700  0.51055100  1
  Li  Li4  1  0.61302900  0.11625100  0.10857000  1
  Mn  Mn5  1  0.09685000  0.88732900  0.43345900  1
  Mn  Mn6  1  0.10742100  0.90885700  0.16998600  1
  Mn  Mn7  1  0.30053600  0.70765300  0.77157900  1
  Mn  Mn8  1  0.28904000  0.67536400  0.03316200  1
  Mn  Mn9  1  0.49565100  0.48512300  0.63401500  1
  Mn  Mn10  1  0.50936000  0.51538200  0.36948400  1
  Mn  Mn11  1  0.71753200  0.32631400  0.96650200  1
  Mn  Mn12  1  0.69754100  0.28545300  0.23312900  1
  Mn  Mn13  1  0.91009000  0.10543100  0.82915800  1
  Mn  Mn14  1  0.90951100  0.11550400  0.56968800  1
  B  B15  1  0.35405600  0.97922400  0.63664700  1
  B  B16  1  0.84683800  0.82667200  0.96040000  1
  B  B17  1  0.55374500  0.77947800  0.23652100  1
  B  B18  1  0.75707000  0.59172400  0.83447500  1
  B  B19  1  0.04277200  0.61539500  0.56347400  1
  B  B20  1  0.95377300  0.38130200  0.43659700  1
  B  B21  1  0.24287500  0.41055600  0.16312300  1
  B  B22  1  0.44681000  0.21342400  0.76533200  1
  B  B23  1  0.15753300  0.17783000  0.03840400  1
  B  B24  1  0.64274400  0.01559700  0.36327000  1
  O  O25  1  0.71593100  0.01022400  0.92846100  1
  O  O26  1  0.09172500  0.98687600  0.64330700  1
  O  O27  1  0.10232700  0.82205300  0.95601400  1
  O  O28  1  0.47430100  0.82177900  0.67797500  1
  O  O29  1  0.70272300  0.93068000  0.19352200  1
  O  O30  1  0.90861700  0.74380400  0.79145600  1
  O  O31  1  0.47796500  0.84115100  0.39376900  1
  O  O32  1  0.92675100  0.80951500  0.53439100  1
  O  O33  1  0.29188300  0.78308800  0.24339600  1
  O  O34  1  0.49571200  0.61565300  0.84347400  1
  O  O35  1  0.29775500  0.59042300  0.55720700  1
  O  O36  1  0.67860300  0.62334400  0.27748300  1
  O  O37  1  0.86738200  0.42419700  0.87258300  1
  O  O38  1  0.10415300  0.53240400  0.39387000  1
  O  O39  1  0.68694700  0.65096700  0.99135400  1
  O  O40  1  0.32078800  0.33482600  0.00251600  1
  O  O41  1  0.87779900  0.44122700  0.59414800  1
  O  O42  1  0.12348600  0.60317400  0.13450000  1
  O  O43  1  0.31994400  0.39894400  0.73605400  1
  O  O44  1  0.69187200  0.38692500  0.44318200  1
  O  O45  1  0.49805000  0.38768400  0.15651500  1
  O  O46  1  0.70124100  0.19378600  0.75439600  1
  O  O47  1  0.07703100  0.22434300  0.47763500  1
  O  O48  1  0.50423600  0.13131900  0.59398600  1
  O  O49  1  0.07859000  0.23570800  0.19334300  1
  O  O50  1  0.29652200  0.03877600  0.80335300  1
  O  O51  1  0.52625400  0.20952700  0.33422500  1
  O  O52  1  0.89558500  0.18793600  0.04074100  1
  O  O53  1  0.89769000  0.99106800  0.35694700  1
  O  O54  1  0.27155700  0.00718000  0.07736400  1
