# generated using pymatgen
data_Li3Mn(PO4)2
_symmetry_space_group_name_H-M   'P 1'
_cell_length_a   4.81994411
_cell_length_b   9.04887700
_cell_length_c   6.60338554
_cell_angle_alpha   90.00134768
_cell_angle_beta   93.99767089
_cell_angle_gamma   89.99974273
_symmetry_Int_Tables_number   1
_chemical_formula_structural   Li3Mn(PO4)2
_chemical_formula_sum   'Li6 Mn2 P4 O16'
_cell_volume   287.30644277
_cell_formula_units_Z   2
loop_
 _symmetry_equiv_pos_site_id
 _symmetry_equiv_pos_as_xyz
  1  'x, y, z'
loop_
 _atom_site_type_symbol
 _atom_site_label
 _atom_site_symmetry_multiplicity
 _atom_site_fract_x
 _atom_site_fract_y
 _atom_site_fract_z
 _atom_site_occupancy
  Li  Li0  1  0.00002200  0.50004000  0.00010300  1
  Li  Li1  1  0.49999000  0.00009100  0.49988100  1
  Li  Li2  1  0.00479400  0.13387500  0.66815800  1
  Li  Li3  1  0.49517100  0.63382000  0.83195000  1
  Li  Li4  1  0.50481400  0.36613900  0.16825300  1
  Li  Li5  1  0.99515000  0.86619400  0.33185200  1
  Mn  Mn6  1  0.49974500  0.99995200  0.99982400  1
  Mn  Mn7  1  0.00022600  0.50012100  0.49999200  1
  P  P8  1  0.02480900  0.17740200  0.19677500  1
  P  P9  1  0.47516400  0.67746600  0.30320100  1
  P  P10  1  0.52507100  0.32257500  0.69690200  1
  P  P11  1  0.97492900  0.82255100  0.80311200  1
  O  O12  1  0.07559600  0.34587500  0.21610800  1
  O  O13  1  0.42452200  0.84594000  0.28387300  1
  O  O14  1  0.57572200  0.15409900  0.71615300  1
  O  O15  1  0.92438400  0.65401900  0.78380600  1
  O  O16  1  0.13701300  0.09134300  0.38339600  1
  O  O17  1  0.36292000  0.59133800  0.11666900  1
  O  O18  1  0.63728500  0.40853500  0.88361300  1
  O  O19  1  0.86267000  0.90853600  0.61643900  1
  O  O20  1  0.20134200  0.35036100  0.66545300  1
  O  O21  1  0.29866400  0.85026100  0.83449600  1
  O  O22  1  0.70101400  0.14972400  0.16546400  1
  O  O23  1  0.79898000  0.64980700  0.33447600  1
  O  O24  1  0.16626600  0.12336900  0.00192200  1
  O  O25  1  0.33373300  0.62345000  0.49810200  1
  O  O26  1  0.66665900  0.37660000  0.50205300  1
  O  O27  1  0.83334500  0.87651700  0.99797200  1
