# generated using pymatgen
data_Li7V3P8O29
_symmetry_space_group_name_H-M   'P 1'
_cell_length_a   9.85057700
_cell_length_b   9.85656574
_cell_length_c   13.90435327
_cell_angle_alpha   90.05518331
_cell_angle_beta   90.05428622
_cell_angle_gamma   119.86038404
_symmetry_Int_Tables_number   1
_chemical_formula_structural   Li7V3P8O29
_chemical_formula_sum   'Li14 V6 P16 O58'
_cell_volume   1170.78514626
_cell_formula_units_Z   2
loop_
 _symmetry_equiv_pos_site_id
 _symmetry_equiv_pos_as_xyz
  1  'x, y, z'
loop_
 _atom_site_type_symbol
 _atom_site_label
 _atom_site_symmetry_multiplicity
 _atom_site_fract_x
 _atom_site_fract_y
 _atom_site_fract_z
 _atom_site_occupancy
  Li  Li0  1  0.23392200  0.90694800  0.43426900  1
  Li  Li1  1  0.09282600  0.33091400  0.43390600  1
  Li  Li2  1  0.33316500  0.66104200  0.61520700  1
  Li  Li3  1  0.32583600  0.67495400  0.11387300  1
  Li  Li4  1  0.23515400  0.32422300  0.93777100  1
  Li  Li5  1  0.67842000  0.90949000  0.94114800  1
  Li  Li6  1  0.67366400  0.76709800  0.43451600  1
  Li  Li7  1  0.33693000  0.10135300  0.06319800  1
  Li  Li8  1  0.76448200  0.65841300  0.06063600  1
  Li  Li9  1  0.90241200  0.66652800  0.55879600  1
  Li  Li10  1  0.76715500  0.09762300  0.55466000  1
  Li  Li11  1  0.90033300  0.23119500  0.06579400  1
  Li  Li12  1  0.01535100  0.96090600  0.00002700  1
  Li  Li13  1  0.04780800  0.03067600  0.49641700  1
  V  V14  1  0.43742700  0.43483200  0.74529700  1
  V  V15  1  0.56227100  0.55945400  0.25165200  1
  V  V16  1  0.43449400  0.00038400  0.25155200  1
  V  V17  1  0.56135500  0.00253700  0.75150900  1
  V  V18  1  0.00014800  0.56552000  0.75598900  1
  V  V19  1  0.99820600  0.43609300  0.25030900  1
  P  P20  1  0.08775000  0.78051200  0.15768500  1
  P  P21  1  0.22101700  0.90761400  0.65757500  1
  P  P22  1  0.08809100  0.31513100  0.65810900  1
  P  P23  1  0.33764400  0.66679300  0.87003000  1
  P  P24  1  0.33528000  0.66544400  0.37443400  1
  P  P25  1  0.22715900  0.31539600  0.15520900  1
  P  P26  1  0.30489200  0.22342100  0.34291100  1
  P  P27  1  0.68271600  0.90557100  0.15729800  1
  P  P28  1  0.30806700  0.08657000  0.84309800  1
  P  P29  1  0.68480100  0.77634700  0.65685200  1
  P  P30  1  0.77079900  0.68570100  0.84214900  1
  P  P31  1  0.66989500  0.33466600  0.63063800  1
  P  P32  1  0.66381900  0.33372900  0.12589300  1
  P  P33  1  0.91372800  0.68740100  0.34480400  1
  P  P34  1  0.77255600  0.08501400  0.34263900  1
  P  P35  1  0.91319500  0.22629100  0.84394900  1
  O  O36  1  0.99744000  0.77887000  0.43536800  1
  O  O37  1  0.07884100  0.73964500  0.66059300  1
  O  O38  1  0.22134600  0.01068900  0.93373100  1
  O  O39  1  0.25234700  0.92496200  0.15558900  1
  O  O40  1  0.10252600  0.63196800  0.16315100  1
  O  O41  1  0.19347100  0.67065500  0.82608600  1
  O  O42  1  0.09625000  0.47594500  0.67035200  1
  O  O43  1  0.00229800  0.22649800  0.93239400  1
  O  O44  1  0.08137600  0.33312900  0.15439600  1
  O  O45  1  0.32417400  0.80918200  0.33896500  1
  O  O46  1  0.37226100  0.89480100  0.67121000  1
  O  O47  1  0.19059500  0.51224200  0.33788000  1
  O  O48  1  0.34306200  0.66521700  0.97745900  1
  O  O49  1  0.34791000  0.66598600  0.48314400  1
  O  O50  1  0.33296400  0.51648600  0.82855900  1
  O  O51  1  0.51911400  0.88791100  0.16678400  1
  O  O52  1  0.48978300  0.81601000  0.83045800  1
  O  O53  1  0.25601300  0.34530300  0.65825600  1
  O  O54  1  0.21088400  0.20464600  0.24302400  1
  O  O55  1  0.19802800  0.21244500  0.42368100  1
  O  O56  1  0.23829400  0.23569900  0.06457300  1
  O  O57  1  0.37333500  0.48025400  0.17068500  1
  O  O58  1  0.48819200  0.67435400  0.33028800  1
  O  O59  1  0.33406400  0.25394700  0.83550400  1
  O  O60  1  0.51967700  0.62995800  0.67007800  1
  O  O61  1  0.66634300  0.92290400  0.65617900  1
  O  O62  1  0.20309200  0.99522400  0.75002400  1
  O  O63  1  0.21794300  0.98759000  0.56692800  1
  O  O64  1  0.77289900  0.99513100  0.43197600  1
  O  O65  1  0.33279000  0.08433100  0.34445600  1
  O  O66  1  0.45830800  0.38167900  0.33592200  1
  O  O67  1  0.66614600  0.74129500  0.15651100  1
  O  O68  1  0.52397500  0.33744700  0.67467300  1
  O  O69  1  0.61450000  0.53350900  0.83102000  1
  O  O70  1  0.77859500  0.77804000  0.93108900  1
  O  O71  1  0.76806000  0.76571300  0.56875100  1
  O  O72  1  0.78965700  0.79425900  0.74964400  1
  O  O73  1  0.74826500  0.66825700  0.34073400  1
  O  O74  1  0.51306900  0.18742100  0.16168700  1
  O  O75  1  0.46391600  0.08521200  0.83231400  1
  O  O76  1  0.66563500  0.48248700  0.17668100  1
  O  O77  1  0.66520000  0.35777800  0.01946800  1
  O  O78  1  0.67282600  0.32868200  0.52440500  1
  O  O79  1  0.81758600  0.48385400  0.67150100  1
  O  O80  1  0.62316400  0.09277000  0.33083200  1
  O  O81  1  0.66591000  0.18316200  0.67492600  1
  O  O82  1  0.90955200  0.65699600  0.83728700  1
  O  O83  1  0.01067500  0.79786900  0.25646600  1
  O  O84  1  0.98706200  0.78571500  0.07762900  1
  O  O85  1  0.90777400  0.53102100  0.33523500  1
  O  O86  1  0.80985500  0.32761000  0.16338600  1
  O  O87  1  0.90947300  0.37897700  0.83158200  1
  O  O88  1  0.74686500  0.08273800  0.84297300  1
  O  O89  1  0.77224800  0.99780500  0.06886500  1
  O  O90  1  0.78838900  0.99360300  0.24964900  1
  O  O91  1  0.91887700  0.24721200  0.34180000  1
  O  O92  1  0.99797100  0.22723500  0.56945600  1
  O  O93  1  0.00041800  0.20727100  0.75026500  1
