# generated using pymatgen
data_LiCrP2O7
_symmetry_space_group_name_H-M   'P 1'
_cell_length_a   8.44954500
_cell_length_b   6.99941500
_cell_length_c   9.18720251
_cell_angle_alpha   67.79545209
_cell_angle_beta   90.00000000
_cell_angle_gamma   90.00000000
_symmetry_Int_Tables_number   1
_chemical_formula_structural   LiCrP2O7
_chemical_formula_sum   'Li4 Cr4 P8 O28'
_cell_volume   503.05396205
_cell_formula_units_Z   4
loop_
 _symmetry_equiv_pos_site_id
 _symmetry_equiv_pos_as_xyz
  1  'x, y, z'
loop_
 _atom_site_type_symbol
 _atom_site_label
 _atom_site_symmetry_multiplicity
 _atom_site_fract_x
 _atom_site_fract_y
 _atom_site_fract_z
 _atom_site_occupancy
  Li  Li0  1  0.57267400  0.20066800  0.90460600  1
  Li  Li1  1  0.07267400  0.79933200  0.59539400  1
  Li  Li2  1  0.92732600  0.20066800  0.40460600  1
  Li  Li3  1  0.42732600  0.79933200  0.09539400  1
  Cr  Cr4  1  0.93369600  0.30345400  0.81635800  1
  Cr  Cr5  1  0.43369600  0.69654600  0.68364200  1
  Cr  Cr6  1  0.56630400  0.30345400  0.31635800  1
  Cr  Cr7  1  0.06630400  0.69654600  0.18364200  1
  P  P8  1  0.71785400  0.52702600  0.53356700  1
  P  P9  1  0.21785400  0.47297400  0.96643300  1
  P  P10  1  0.73436500  0.93609300  0.24186600  1
  P  P11  1  0.23436500  0.06390700  0.25813400  1
  P  P12  1  0.76563500  0.93609300  0.74186600  1
  P  P13  1  0.26563500  0.06390700  0.75813400  1
  P  P14  1  0.78214600  0.52702600  0.03356700  1
  P  P15  1  0.28214600  0.47297400  0.46643300  1
  O  O16  1  0.58057900  0.49429200  0.64964800  1
  O  O17  1  0.88015600  0.52087300  0.61406300  1
  O  O18  1  0.77700800  0.37505800  0.94846200  1
  O  O19  1  0.27700800  0.62494200  0.55153800  1
  O  O20  1  0.38015600  0.47912700  0.88593700  1
  O  O21  1  0.68988600  0.75311200  0.40832900  1
  O  O22  1  0.08057900  0.50570800  0.85035200  1
  O  O23  1  0.24125600  0.87568300  0.20881400  1
  O  O24  1  0.89917900  0.88453200  0.19506500  1
  O  O25  1  0.60768700  0.95521600  0.12299100  1
  O  O26  1  0.81011400  0.75311200  0.90832900  1
  O  O27  1  0.10768700  0.04478400  0.37700900  1
  O  O28  1  0.25874400  0.87568300  0.70881400  1
  O  O29  1  0.60082100  0.88453200  0.69506500  1
  O  O30  1  0.39917900  0.11546800  0.30493500  1
  O  O31  1  0.74125600  0.12431700  0.29118600  1
  O  O32  1  0.89231300  0.95521600  0.62299100  1
  O  O33  1  0.18988600  0.24688800  0.09167100  1
  O  O34  1  0.39231300  0.04478400  0.87700900  1
  O  O35  1  0.10082100  0.11546800  0.80493500  1
  O  O36  1  0.75874400  0.12431700  0.79118600  1
  O  O37  1  0.91942100  0.49429200  0.14964800  1
  O  O38  1  0.31011400  0.24688800  0.59167100  1
  O  O39  1  0.61984400  0.52087300  0.11406300  1
  O  O40  1  0.72299200  0.37505800  0.44846200  1
  O  O41  1  0.22299200  0.62494200  0.05153800  1
  O  O42  1  0.11984400  0.47912700  0.38593700  1
  O  O43  1  0.41942100  0.50570800  0.35035200  1
