# generated using pymatgen
data_Li2MnPO5
_symmetry_space_group_name_H-M   'P 1'
_cell_length_a   5.08671300
_cell_length_b   12.87841000
_cell_length_c   13.18113400
_cell_angle_alpha   61.70204489
_cell_angle_beta   90.00000000
_cell_angle_gamma   90.00000000
_symmetry_Int_Tables_number   1
_chemical_formula_structural   Li2MnPO5
_chemical_formula_sum   'Li16 Mn8 P8 O40'
_cell_volume   760.28914996
_cell_formula_units_Z   8
loop_
 _symmetry_equiv_pos_site_id
 _symmetry_equiv_pos_as_xyz
  1  'x, y, z'
loop_
 _atom_site_type_symbol
 _atom_site_label
 _atom_site_symmetry_multiplicity
 _atom_site_fract_x
 _atom_site_fract_y
 _atom_site_fract_z
 _atom_site_occupancy
  Li  Li0  1  0.72586700  0.82167700  0.36071800  1
  Li  Li1  1  0.75372100  0.33994500  0.08490800  1
  Li  Li2  1  0.21078200  0.18171800  0.14303800  1
  Li  Li3  1  0.73340600  0.58566100  0.58050600  1
  Li  Li4  1  0.23340600  0.91433900  0.41949400  1
  Li  Li5  1  0.71078200  0.31828200  0.85696200  1
  Li  Li6  1  0.77413300  0.32167700  0.36071800  1
  Li  Li7  1  0.74627900  0.83994500  0.08490800  1
  Li  Li8  1  0.25372100  0.16005500  0.91509200  1
  Li  Li9  1  0.22586700  0.67832300  0.63928200  1
  Li  Li10  1  0.28921800  0.68171800  0.14303800  1
  Li  Li11  1  0.76659400  0.08566100  0.58050600  1
  Li  Li12  1  0.26659400  0.41433900  0.41949400  1
  Li  Li13  1  0.78921800  0.81828200  0.85696200  1
  Li  Li14  1  0.24627900  0.66005500  0.91509200  1
  Li  Li15  1  0.27413300  0.17832300  0.63928200  1
  Mn  Mn16  1  0.72470300  0.12570400  0.06223400  1
  Mn  Mn17  1  0.26548700  0.68651100  0.43520800  1
  Mn  Mn18  1  0.77529700  0.62570400  0.06223400  1
  Mn  Mn19  1  0.76548700  0.81348900  0.56479200  1
  Mn  Mn20  1  0.23451300  0.18651100  0.43520800  1
  Mn  Mn21  1  0.22470300  0.37429600  0.93776600  1
  Mn  Mn22  1  0.73451300  0.31348900  0.56479200  1
  Mn  Mn23  1  0.27529700  0.87429600  0.93776600  1
  P  P24  1  0.23098600  0.92805700  0.16316800  1
  P  P25  1  0.23336700  0.41294700  0.66424000  1
  P  P26  1  0.26901400  0.42805700  0.16316800  1
  P  P27  1  0.73336700  0.08705300  0.33576000  1
  P  P28  1  0.26663300  0.91294700  0.66424000  1
  P  P29  1  0.73098600  0.57194300  0.83683200  1
  P  P30  1  0.76663300  0.58705300  0.33576000  1
  P  P31  1  0.76901400  0.07194300  0.83683200  1
  O  O32  1  0.93165300  0.94917600  0.13714900  1
  O  O33  1  0.01063400  0.22124100  0.99229900  1
  O  O34  1  0.37387200  0.04789200  0.12091500  1
  O  O35  1  0.61914600  0.65355000  0.39053400  1
  O  O36  1  0.28132900  0.85702500  0.29496000  1
  O  O37  1  0.14650400  0.36074500  0.10267000  1
  O  O38  1  0.80727300  0.14834100  0.20624900  1
  O  O39  1  0.93198400  0.40776500  0.64478900  1
  O  O40  1  0.97868900  0.72531700  0.49360000  1
  O  O41  1  0.56834700  0.44917600  0.13714900  1
  O  O42  1  0.48936600  0.72124100  0.99229900  1
  O  O43  1  0.33027300  0.54311200  0.60664500  1
  O  O44  1  0.83027300  0.95688800  0.39335500  1
  O  O45  1  0.12612800  0.54789200  0.12091500  1
  O  O46  1  0.47868900  0.77468300  0.50640000  1
  O  O47  1  0.43198400  0.09223500  0.35521100  1
  O  O48  1  0.88085400  0.15355000  0.39053400  1
  O  O49  1  0.21867100  0.35702500  0.29496000  1
  O  O50  1  0.30727300  0.35165900  0.79375100  1
  O  O51  1  0.64650400  0.13925500  0.89733000  1
  O  O52  1  0.35349600  0.86074500  0.10267000  1
  O  O53  1  0.69272700  0.64834100  0.20624900  1
  O  O54  1  0.78132900  0.64297500  0.70504000  1
  O  O55  1  0.11914600  0.84645000  0.60946600  1
  O  O56  1  0.56801600  0.90776500  0.64478900  1
  O  O57  1  0.52131100  0.22531700  0.49360000  1
  O  O58  1  0.87387200  0.45210800  0.87908500  1
  O  O59  1  0.16972700  0.04311200  0.60664500  1
  O  O60  1  0.66972700  0.45688800  0.39335500  1
  O  O61  1  0.51063400  0.27875900  0.00770100  1
  O  O62  1  0.43165300  0.55082400  0.86285100  1
  O  O63  1  0.02131100  0.27468300  0.50640000  1
  O  O64  1  0.06801600  0.59223500  0.35521100  1
  O  O65  1  0.19272700  0.85165900  0.79375100  1
  O  O66  1  0.85349600  0.63925500  0.89733000  1
  O  O67  1  0.71867100  0.14297500  0.70504000  1
  O  O68  1  0.38085400  0.34645000  0.60946600  1
  O  O69  1  0.62612800  0.95210800  0.87908500  1
  O  O70  1  0.98936600  0.77875900  0.00770100  1
  O  O71  1  0.06834700  0.05082400  0.86285100  1
