# generated using pymatgen
data_Li2Mn4Si4O13
_symmetry_space_group_name_H-M   'P 1'
_cell_length_a   6.98550000
_cell_length_b   8.06007927
_cell_length_c   10.39822838
_cell_angle_alpha   111.56716382
_cell_angle_beta   89.79515980
_cell_angle_gamma   101.94875003
_symmetry_Int_Tables_number   1
_chemical_formula_structural   Li2Mn4Si4O13
_chemical_formula_sum   'Li4 Mn8 Si8 O26'
_cell_volume   530.97689493
_cell_formula_units_Z   2
loop_
 _symmetry_equiv_pos_site_id
 _symmetry_equiv_pos_as_xyz
  1  'x, y, z'
loop_
 _atom_site_type_symbol
 _atom_site_label
 _atom_site_symmetry_multiplicity
 _atom_site_fract_x
 _atom_site_fract_y
 _atom_site_fract_z
 _atom_site_occupancy
  Li  Li0  1  0.77229200  0.60122200  0.11418500  1
  Li  Li1  1  0.25586800  0.43664800  0.41535500  1
  Li  Li2  1  0.74413200  0.56335200  0.58464500  1
  Li  Li3  1  0.22770800  0.39877800  0.88581500  1
  Mn  Mn4  1  0.08294200  0.80748600  0.00244000  1
  Mn  Mn5  1  0.57018700  0.80856900  0.00813500  1
  Mn  Mn6  1  0.57559200  0.81665800  0.38878400  1
  Mn  Mn7  1  0.07194200  0.80904300  0.39348500  1
  Mn  Mn8  1  0.92805800  0.19095700  0.60651500  1
  Mn  Mn9  1  0.42440800  0.18334200  0.61121600  1
  Mn  Mn10  1  0.42981300  0.19143100  0.99186500  1
  Mn  Mn11  1  0.91705800  0.19251400  0.99756000  1
  Si  Si12  1  0.26999800  0.59027700  0.17826200  1
  Si  Si13  1  0.72146800  0.41048100  0.29165800  1
  Si  Si14  1  0.37299700  0.11679900  0.28053300  1
  Si  Si15  1  0.92394500  0.10338200  0.28037100  1
  Si  Si16  1  0.07605500  0.89661800  0.71962900  1
  Si  Si17  1  0.62700300  0.88320100  0.71946700  1
  Si  Si18  1  0.27853200  0.58951900  0.70834200  1
  Si  Si19  1  0.73000200  0.40972300  0.82173800  1
  O  O20  1  0.86205100  0.99426500  0.11537900  1
  O  O21  1  0.21221000  0.37514300  0.06970300  1
  O  O22  1  0.49944900  0.68243200  0.15882800  1
  O  O23  1  0.09756600  0.70020800  0.16333000  1
  O  O24  1  0.71913600  0.35833400  0.12465700  1
  O  O25  1  0.39003200  0.01136600  0.11626400  1
  O  O26  1  0.86533800  0.99263300  0.38423400  1
  O  O27  1  0.40357300  0.02089100  0.38898100  1
  O  O28  1  0.27415400  0.62452200  0.34672000  1
  O  O29  1  0.78304100  0.62782400  0.38637000  1
  O  O30  1  0.16132600  0.17584600  0.30223200  1
  O  O31  1  0.50432000  0.33243700  0.33740600  1
  O  O32  1  0.86301400  0.30321600  0.34386700  1
  O  O33  1  0.13698600  0.69678400  0.65613300  1
  O  O34  1  0.49568000  0.66756300  0.66259400  1
  O  O35  1  0.83867400  0.82415400  0.69776800  1
  O  O36  1  0.21695900  0.37217600  0.61363000  1
  O  O37  1  0.72584600  0.37547800  0.65328000  1
  O  O38  1  0.59642700  0.97910900  0.61101900  1
  O  O39  1  0.13466200  0.00736700  0.61576600  1
  O  O40  1  0.60996800  0.98863400  0.88373600  1
  O  O41  1  0.28086400  0.64166600  0.87534300  1
  O  O42  1  0.90243400  0.29979200  0.83667000  1
  O  O43  1  0.50055100  0.31756800  0.84117200  1
  O  O44  1  0.78779000  0.62485700  0.93029700  1
  O  O45  1  0.13794900  0.00573500  0.88462100  1
