# generated using pymatgen
data_Li2Mn3(BO3)3
_symmetry_space_group_name_H-M   'P 1'
_cell_length_a   10.42292171
_cell_length_b   10.42292171
_cell_length_c   8.28653121
_cell_angle_alpha   66.60891563
_cell_angle_beta   66.60891563
_cell_angle_gamma   74.91326505
_symmetry_Int_Tables_number   1
_chemical_formula_structural   Li2Mn3(BO3)3
_chemical_formula_sum   'Li8 Mn12 B12 O36'
_cell_volume   752.68565196
_cell_formula_units_Z   4
loop_
 _symmetry_equiv_pos_site_id
 _symmetry_equiv_pos_as_xyz
  1  'x, y, z'
loop_
 _atom_site_type_symbol
 _atom_site_label
 _atom_site_symmetry_multiplicity
 _atom_site_fract_x
 _atom_site_fract_y
 _atom_site_fract_z
 _atom_site_occupancy
  Li  Li0  1  0.98114600  0.48753500  0.29699600  1
  Li  Li1  1  0.73594700  0.73594700  0.29736200  1
  Li  Li2  1  0.52602100  0.52602100  0.97223400  1
  Li  Li3  1  0.48753500  0.98114600  0.29699600  1
  Li  Li4  1  0.02453000  0.02453000  0.98371800  1
  Li  Li5  1  0.61513800  0.11113700  0.72678500  1
  Li  Li6  1  0.11113700  0.61513800  0.72678500  1
  Li  Li7  1  0.36641600  0.36641600  0.70878100  1
  Mn  Mn8  1  0.81382900  0.56369400  0.00521000  1
  Mn  Mn9  1  0.50775200  0.25569000  0.33919200  1
  Mn  Mn10  1  0.25569000  0.50775200  0.33919200  1
  Mn  Mn11  1  0.76119400  0.00510900  0.37739000  1
  Mn  Mn12  1  0.92982300  0.17491600  0.64241500  1
  Mn  Mn13  1  0.68176100  0.42843600  0.62837000  1
  Mn  Mn14  1  0.42843600  0.68176100  0.62837000  1
  Mn  Mn15  1  0.56369400  0.81382900  0.00521000  1
  Mn  Mn16  1  0.31450600  0.06292400  0.01444800  1
  Mn  Mn17  1  0.06292400  0.31450600  0.01444800  1
  Mn  Mn18  1  0.00510900  0.76119400  0.37739000  1
  Mn  Mn19  1  0.17491600  0.92982300  0.64241500  1
  B  B20  1  0.99990400  0.74607200  0.01578100  1
  B  B21  1  0.70728300  0.70728300  0.65820300  1
  B  B22  1  0.74607200  0.99990400  0.01578100  1
  B  B23  1  0.95822500  0.46591900  0.66178100  1
  B  B24  1  0.46591900  0.95822500  0.66178100  1
  B  B25  1  0.54335800  0.54335800  0.32424300  1
  B  B26  1  0.20824500  0.20824500  0.66631900  1
  B  B27  1  0.79699700  0.28179200  0.34547800  1
  B  B28  1  0.04001600  0.04001600  0.33706700  1
  B  B29  1  0.50149400  0.24971800  0.98846800  1
  B  B30  1  0.24971800  0.50149400  0.98846800  1
  B  B31  1  0.28179200  0.79699700  0.34547800  1
  O  O32  1  0.94298100  0.70072100  0.21118400  1
  O  O33  1  0.65233600  0.65233600  0.57680700  1
  O  O34  1  0.90636700  0.40619900  0.58275800  1
  O  O35  1  0.58636500  0.35610300  0.90617000  1
  O  O36  1  0.35610300  0.58636500  0.90617000  1
  O  O37  1  0.85103100  0.08597100  0.92138200  1
  O  O38  1  0.46273200  0.18194900  0.17818500  1
  O  O39  1  0.18194900  0.46273200  0.17818500  1
  O  O40  1  0.70072100  0.94298100  0.21118400  1
  O  O41  1  0.66886100  0.66886100  0.84848700  1
  O  O42  1  0.93071600  0.43069900  0.84889500  1
  O  O43  1  0.96747800  0.68433500  0.91948200  1
  O  O44  1  0.97506200  0.97506200  0.26495300  1
  O  O45  1  0.48737500  0.48737500  0.24175800  1
  O  O46  1  0.40619900  0.90636700  0.58275800  1
  O  O47  1  0.14543800  0.14543800  0.60281900  1
  O  O48  1  0.75188800  0.21083200  0.26911700  1
  O  O49  1  0.21083200  0.75188800  0.26911700  1
  O  O50  1  0.80482200  0.80482200  0.53977000  1
  O  O51  1  0.57088200  0.04995600  0.54362500  1
  O  O52  1  0.04995600  0.57088200  0.54362500  1
  O  O53  1  0.64076400  0.64076400  0.20986200  1
  O  O54  1  0.30421100  0.30421100  0.54592000  1
  O  O55  1  0.88171200  0.38706300  0.22659500  1
  O  O56  1  0.08597100  0.85103100  0.92138200  1
  O  O57  1  0.50323400  0.50323400  0.51595600  1
  O  O58  1  0.43069900  0.93071600  0.84889500  1
  O  O59  1  0.17106000  0.17106000  0.85822000  1
  O  O60  1  0.75506100  0.24584600  0.53822600  1
  O  O61  1  0.45599600  0.21151200  0.87787400  1
  O  O62  1  0.21151200  0.45599600  0.87787400  1
  O  O63  1  0.68433500  0.96747800  0.91948200  1
  O  O64  1  0.13227500  0.13227500  0.20792400  1
  O  O65  1  0.38706300  0.88171200  0.22659500  1
  O  O66  1  0.00366300  0.00366300  0.52424000  1
  O  O67  1  0.24584600  0.75506100  0.53822600  1
