# generated using pymatgen
data_LiCoPO4
_symmetry_space_group_name_H-M   'P 1'
_cell_length_a   7.53632000
_cell_length_b   8.45440100
_cell_length_c   17.10652915
_cell_angle_alpha   61.28932783
_cell_angle_beta   90.00000000
_cell_angle_gamma   90.00000000
_symmetry_Int_Tables_number   1
_chemical_formula_structural   LiCoPO4
_chemical_formula_sum   'Li12 Co12 P12 O48'
_cell_volume   955.94244655
_cell_formula_units_Z   12
loop_
 _symmetry_equiv_pos_site_id
 _symmetry_equiv_pos_as_xyz
  1  'x, y, z'
loop_
 _atom_site_type_symbol
 _atom_site_label
 _atom_site_symmetry_multiplicity
 _atom_site_fract_x
 _atom_site_fract_y
 _atom_site_fract_z
 _atom_site_occupancy
  Li  Li0  1  0.76073100  0.85888000  0.59333600  1
  Li  Li1  1  0.73101200  0.17726600  0.22978200  1
  Li  Li2  1  0.76764600  0.46347600  0.92416100  1
  Li  Li3  1  0.26764600  0.53652400  0.57583900  1
  Li  Li4  1  0.23101200  0.82273400  0.27021800  1
  Li  Li5  1  0.26073100  0.14112000  0.90666400  1
  Li  Li6  1  0.73926900  0.85888000  0.09333600  1
  Li  Li7  1  0.76898800  0.17726600  0.72978200  1
  Li  Li8  1  0.73235400  0.46347600  0.42416100  1
  Li  Li9  1  0.23235400  0.53652400  0.07583900  1
  Li  Li10  1  0.26898800  0.82273400  0.77021800  1
  Li  Li11  1  0.23926900  0.14112000  0.40666400  1
  Co  Co12  1  0.48168500  0.20806000  0.06469600  1
  Co  Co13  1  0.52338500  0.85339000  0.40946100  1
  Co  Co14  1  0.38637500  0.50980600  0.75294300  1
  Co  Co15  1  0.88637500  0.49019400  0.74705700  1
  Co  Co16  1  0.02338500  0.14661000  0.09053900  1
  Co  Co17  1  0.98168500  0.79194000  0.43530400  1
  Co  Co18  1  0.01831500  0.20806000  0.56469600  1
  Co  Co19  1  0.97661500  0.85339000  0.90946100  1
  Co  Co20  1  0.11362500  0.50980600  0.25294300  1
  Co  Co21  1  0.61362500  0.49019400  0.24705700  1
  Co  Co22  1  0.47661500  0.14661000  0.59053900  1
  Co  Co23  1  0.51831500  0.79194000  0.93530400  1
  P  P24  1  0.18381900  0.86348800  0.58828000  1
  P  P25  1  0.32042200  0.18586200  0.22764200  1
  P  P26  1  0.17653900  0.46890300  0.92824300  1
  P  P27  1  0.67653900  0.53109700  0.57175700  1
  P  P28  1  0.82042200  0.81413800  0.27235800  1
  P  P29  1  0.68381900  0.13651200  0.91172000  1
  P  P30  1  0.31618100  0.86348800  0.08828000  1
  P  P31  1  0.17957800  0.18586200  0.72764200  1
  P  P32  1  0.32346100  0.46890300  0.42824300  1
  P  P33  1  0.82346100  0.53109700  0.07175700  1
  P  P34  1  0.67957800  0.81413800  0.77235800  1
  P  P35  1  0.81618100  0.13651200  0.41172000  1
  O  O36  1  0.99002100  0.05884400  0.39418600  1
  O  O37  1  0.85963200  0.32624700  0.12159500  1
  O  O38  1  0.68608000  0.97976300  0.46656500  1
  O  O39  1  0.77515100  0.63444800  0.79359300  1
  O  O40  1  0.30511500  0.41348000  0.00889700  1
  O  O41  1  0.49858000  0.24081200  0.17444600  1
  O  O42  1  0.35901600  0.07010200  0.32868000  1
  O  O43  1  0.26649000  0.73504900  0.68129900  1
  O  O44  1  0.00210400  0.36017800  0.96408700  1
  O  O45  1  0.13777400  0.75289100  0.53998000  1
  O  O46  1  0.26070700  0.40490000  0.86418400  1
  O  O47  1  0.20651500  0.08172800  0.19212100  1
  O  O48  1  0.76070700  0.59510000  0.63581600  1
  O  O49  1  0.70651500  0.91827200  0.30787900  1
  O  O50  1  0.63777400  0.24710900  0.96002000  1
  O  O51  1  0.50210400  0.63982200  0.53591300  1
  O  O52  1  0.76649000  0.26495100  0.81870100  1
  O  O53  1  0.85901600  0.92989800  0.17132000  1
  O  O54  1  0.99858000  0.75918800  0.32555400  1
  O  O55  1  0.27515100  0.36555200  0.70640700  1
  O  O56  1  0.80511500  0.58652000  0.49110300  1
  O  O57  1  0.18608000  0.02023700  0.03343500  1
  O  O58  1  0.35963200  0.67375300  0.37840500  1
  O  O59  1  0.49002100  0.94115600  0.10581400  1
  O  O60  1  0.50997900  0.05884400  0.89418600  1
  O  O61  1  0.64036800  0.32624700  0.62159500  1
  O  O62  1  0.81392000  0.97976300  0.96656500  1
  O  O63  1  0.19488500  0.41348000  0.50889700  1
  O  O64  1  0.72484900  0.63444800  0.29359300  1
  O  O65  1  0.00142000  0.24081200  0.67444600  1
  O  O66  1  0.14098400  0.07010200  0.82868000  1
  O  O67  1  0.23351000  0.73504900  0.18129900  1
  O  O68  1  0.49789600  0.36017800  0.46408700  1
  O  O69  1  0.36222600  0.75289100  0.03998000  1
  O  O70  1  0.29348500  0.08172800  0.69212100  1
  O  O71  1  0.23929300  0.40490000  0.36418400  1
  O  O72  1  0.79348500  0.91827200  0.80787900  1
  O  O73  1  0.73929300  0.59510000  0.13581600  1
  O  O74  1  0.86222600  0.24710900  0.46002000  1
  O  O75  1  0.99789600  0.63982200  0.03591300  1
  O  O76  1  0.73351000  0.26495100  0.31870100  1
  O  O77  1  0.64098400  0.92989800  0.67132000  1
  O  O78  1  0.50142000  0.75918800  0.82555400  1
  O  O79  1  0.69488500  0.58652000  0.99110300  1
  O  O80  1  0.22484900  0.36555200  0.20640700  1
  O  O81  1  0.31392000  0.02023700  0.53343500  1
  O  O82  1  0.14036800  0.67375300  0.87840500  1
  O  O83  1  0.00997900  0.94115600  0.60581400  1
