# generated using pymatgen
data_Li4Mn(PO3)6
_symmetry_space_group_name_H-M   'P 1'
_cell_length_a   7.37615859
_cell_length_b   7.37615859
_cell_length_c   14.03197012
_cell_angle_alpha   86.49842255
_cell_angle_beta   86.49842255
_cell_angle_gamma   64.40268189
_symmetry_Int_Tables_number   1
_chemical_formula_structural   Li4Mn(PO3)6
_chemical_formula_sum   'Li8 Mn2 P12 O36'
_cell_volume   686.72133641
_cell_formula_units_Z   2
loop_
 _symmetry_equiv_pos_site_id
 _symmetry_equiv_pos_as_xyz
  1  'x, y, z'
loop_
 _atom_site_type_symbol
 _atom_site_label
 _atom_site_symmetry_multiplicity
 _atom_site_fract_x
 _atom_site_fract_y
 _atom_site_fract_z
 _atom_site_occupancy
  Li  Li0  1  0.96031800  0.70030600  0.92433600  1
  Li  Li1  1  0.70030600  0.96031800  0.42433600  1
  Li  Li2  1  0.78321600  0.55836300  0.54725100  1
  Li  Li3  1  0.55836300  0.78321600  0.04725100  1
  Li  Li4  1  0.44163700  0.21678400  0.95274900  1
  Li  Li5  1  0.21678400  0.44163700  0.45274900  1
  Li  Li6  1  0.29969400  0.03968200  0.57566400  1
  Li  Li7  1  0.03968200  0.29969400  0.07566400  1
  Mn  Mn8  1  0.37450900  0.62549100  0.75000000  1
  Mn  Mn9  1  0.62549100  0.37450900  0.25000000  1
  P  P10  1  0.96266200  0.85308900  0.61303400  1
  P  P11  1  0.85308900  0.96266200  0.11303400  1
  P  P12  1  0.63064000  0.90827600  0.75082100  1
  P  P13  1  0.90827600  0.63064000  0.25082100  1
  P  P14  1  0.77063300  0.39857000  0.89037500  1
  P  P15  1  0.39857000  0.77063300  0.39037500  1
  P  P16  1  0.60143000  0.22936700  0.60962500  1
  P  P17  1  0.22936700  0.60143000  0.10962500  1
  P  P18  1  0.09172400  0.36936000  0.74917900  1
  P  P19  1  0.36936000  0.09172400  0.24917900  1
  P  P20  1  0.14691100  0.03733800  0.88696600  1
  P  P21  1  0.03733800  0.14691100  0.38696600  1
  O  O22  1  0.86465800  0.81610000  0.71386600  1
  O  O23  1  0.91300300  0.75341500  0.53493400  1
  O  O24  1  0.81610000  0.86465800  0.21386600  1
  O  O25  1  0.75341500  0.91300300  0.03493400  1
  O  O26  1  0.62990800  0.90156700  0.85686500  1
  O  O27  1  0.90156700  0.62990800  0.35686500  1
  O  O28  1  0.81293800  0.50416800  0.96855900  1
  O  O29  1  0.52287500  0.81339800  0.69818900  1
  O  O30  1  0.85933000  0.44745300  0.78852000  1
  O  O31  1  0.50416800  0.81293800  0.46855900  1
  O  O32  1  0.81339800  0.52287500  0.19818900  1
  O  O33  1  0.44745300  0.85933000  0.28852000  1
  O  O34  1  0.90426100  0.15746300  0.90205500  1
  O  O35  1  0.18850600  0.82377000  0.86954100  1
  O  O36  1  0.55953000  0.42888400  0.87405700  1
  O  O37  1  0.15746300  0.90426100  0.40205500  1
  O  O38  1  0.57111600  0.44047000  0.62594300  1
  O  O39  1  0.82377000  0.18850600  0.36954100  1
  O  O40  1  0.17623000  0.81149400  0.63045900  1
  O  O41  1  0.42888400  0.55953000  0.37405700  1
  O  O42  1  0.84253700  0.09573900  0.59794500  1
  O  O43  1  0.44047000  0.57111600  0.12594300  1
  O  O44  1  0.81149400  0.17623000  0.13045900  1
  O  O45  1  0.09573900  0.84253700  0.09794500  1
  O  O46  1  0.55254700  0.14067000  0.71148000  1
  O  O47  1  0.18660200  0.47712500  0.80181100  1
  O  O48  1  0.49583200  0.18706200  0.53144100  1
  O  O49  1  0.14067000  0.55254700  0.21148000  1
  O  O50  1  0.47712500  0.18660200  0.30181100  1
  O  O51  1  0.18706200  0.49583200  0.03144100  1
  O  O52  1  0.09843300  0.37009200  0.64313500  1
  O  O53  1  0.37009200  0.09843300  0.14313500  1
  O  O54  1  0.24658500  0.08699700  0.96506600  1
  O  O55  1  0.18390000  0.13534200  0.78613400  1
  O  O56  1  0.08699700  0.24658500  0.46506600  1
  O  O57  1  0.13534200  0.18390000  0.28613400  1
