# generated using pymatgen
data_LiCd3
_symmetry_space_group_name_H-M   'P 1'
_cell_length_a   6.17964290
_cell_length_b   6.17964290
_cell_length_c   4.94154700
_cell_angle_alpha   90.00000000
_cell_angle_beta   90.00000000
_cell_angle_gamma   120.00000966
_symmetry_Int_Tables_number   1
_chemical_formula_structural   LiCd3
_chemical_formula_sum   'Li2 Cd6'
_cell_volume   163.42567184
_cell_formula_units_Z   2
loop_
 _symmetry_equiv_pos_site_id
 _symmetry_equiv_pos_as_xyz
  1  'x, y, z'
loop_
 _atom_site_type_symbol
 _atom_site_label
 _atom_site_symmetry_multiplicity
 _atom_site_fract_x
 _atom_site_fract_y
 _atom_site_fract_z
 _atom_site_occupancy
  Li  Li0  1  0.66666700  0.33333300  0.25000000  1
  Li  Li1  1  0.33333300  0.66666700  0.75000000  1
  Cd  Cd2  1  0.83004500  0.16995500  0.75000000  1
  Cd  Cd3  1  0.33990900  0.16995500  0.75000000  1
  Cd  Cd4  1  0.83004500  0.66009100  0.75000000  1
  Cd  Cd5  1  0.16995500  0.83004500  0.25000000  1
  Cd  Cd6  1  0.66009100  0.83004500  0.25000000  1
  Cd  Cd7  1  0.16995500  0.33990900  0.25000000  1
