# generated using pymatgen
data_Li9Nb10Cr6(PO4)24
_symmetry_space_group_name_H-M   'P 1'
_cell_length_a   8.76177740
_cell_length_b   8.84414090
_cell_length_c   24.52532467
_cell_angle_alpha   89.95293101
_cell_angle_beta   90.04225667
_cell_angle_gamma   89.99422967
_symmetry_Int_Tables_number   1
_chemical_formula_structural   Li9Nb10Cr6(PO4)24
_chemical_formula_sum   'Li9 Nb10 Cr6 P24 O96'
_cell_volume   1900.47590021
_cell_formula_units_Z   1
loop_
 _symmetry_equiv_pos_site_id
 _symmetry_equiv_pos_as_xyz
  1  'x, y, z'
loop_
 _atom_site_type_symbol
 _atom_site_label
 _atom_site_symmetry_multiplicity
 _atom_site_fract_x
 _atom_site_fract_y
 _atom_site_fract_z
 _atom_site_occupancy
  Li  Li0  1  0.99910519  0.97434348  0.99350392  1
  Li  Li1  1  0.99872079  0.52615077  0.49444417  1
  Li  Li2  1  0.46761462  0.96691244  0.71374464  1
  Li  Li3  1  0.49938440  0.50385384  0.99833813  1
  Li  Li4  1  0.49973848  0.99645889  0.49763278  1
  Li  Li5  1  0.53516061  0.03502245  0.28723193  1
  Li  Li6  1  0.53374305  0.46711443  0.78681091  1
  Li  Li7  1  0.96466427  0.53406956  0.28760109  1
  Li  Li8  1  0.96345430  0.96222217  0.78741529  1
  Nb  Nb9  1  0.00495212  0.21008748  0.32007305  1
  Nb  Nb10  1  0.00483152  0.28891499  0.81998781  1
  Nb  Nb11  1  0.49597347  0.78526961  0.82343741  1
  Nb  Nb12  1  0.49529153  0.71093684  0.32110522  1
  Nb  Nb13  1  0.50090788  0.22286623  0.17905468  1
  Nb  Nb14  1  0.50127803  0.28622138  0.67822139  1
  Nb  Nb15  1  0.00204633  0.72570506  0.17988603  1
  Nb  Nb16  1  0.00093659  0.77424751  0.67912074  1
  Nb  Nb17  1  0.00043584  0.21201649  0.56612940  1
  Nb  Nb18  1  0.00136184  0.28823065  0.06568515  1
  Cr  Cr19  1  0.99882547  0.78708908  0.43191257  1
  Cr  Cr20  1  0.99926485  0.71376912  0.93225747  1
  Cr  Cr21  1  0.50033435  0.28652984  0.43260691  1
  Cr  Cr22  1  0.50028307  0.21172178  0.93286644  1
  Cr  Cr23  1  0.50040220  0.71440309  0.56545246  1
  Cr  Cr24  1  0.49974174  0.78539247  0.06625122  1
  P  P25  1  0.13940845  0.35385091  0.19923915  1
  P  P26  1  0.14029533  0.14241819  0.69977692  1
  P  P27  1  0.15720255  0.64349424  0.05027079  1
  P  P28  1  0.15767111  0.85736673  0.55002561  1
  P  P29  1  0.20891539  0.50142459  0.38110033  1
  P  P30  1  0.20811716  0.99804153  0.88068882  1
  P  P31  1  0.29175585  0.00262536  0.38100535  1
  P  P32  1  0.28968954  0.49683014  0.88153846  1
  P  P33  1  0.35333993  0.13031205  0.05018830  1
  P  P34  1  0.35144909  0.36852379  0.54949976  1
  P  P35  1  0.36539733  0.65148685  0.69749544  1
  P  P36  1  0.36579134  0.85369318  0.19697984  1
  P  P37  1  0.64084406  0.14885460  0.80231667  1
  P  P38  1  0.64154969  0.35434003  0.30325673  1
  P  P39  1  0.65412485  0.63194848  0.44980292  1
  P  P40  1  0.65579273  0.86692783  0.95101945  1
  P  P41  1  0.70921296  0.50984297  0.12090081  1
  P  P42  1  0.70751222  0.99017131  0.62093869  1
  P  P43  1  0.78281121  -0.00000989  0.12037351  1
  P  P44  1  0.78523019  0.49947686  0.61992644  1
  P  P45  1  0.84091856  0.12978514  0.44731189  1
  P  P46  1  0.84199053  0.37126261  0.94717534  1
  P  P47  1  0.85752688  0.64539890  0.80366936  1
  P  P48  1  0.85694422  0.85282279  0.30300577  1
  O  O49  1  0.07197269  0.74375967  0.00961818  1
  O  O50  1  0.07121623  0.75707359  0.50962291  1
  O  O51  1  0.07665203  0.24289937  0.24229412  1
  O  O52  1  0.08013870  0.25378595  0.74344286  1
  O  O53  1  0.08323484  0.30514016  0.14265353  1
  O  O54  1  0.08498126  0.19642507  0.64375721  1
  O  O55  1  0.08654247  0.51716546  0.21322996  1
  O  O56  1  0.07873018  0.98170947  0.71397105  1
  O  O57  1  0.10380471  0.69289032  0.10834481  1
  O  O58  1  0.10596321  0.80774224  0.60832539  1
  O  O59  1  0.10062153  0.42101365  0.33888267  1
  O  O60  1  0.09623194  0.08507744  0.84033717  1
  O  O61  1  0.10982474  0.58924878  0.42139264  1
  O  O62  1  0.10601475  0.91364682  0.92101990  1
  O  O63  1  0.10916297  0.47351643  0.04400599  1
  O  O64  1  0.10919746  0.02702355  0.54417803  1
  O  O65  1  0.17579804  0.15189746  0.04658537  1
  O  O66  1  0.17428986  0.34892417  0.54542396  1
  O  O67  1  0.18824058  0.84691045  0.20090065  1
  O  O68  1  0.18834041  0.65706850  0.70158186  1
  O  O69  1  0.18718061  0.60688580  0.91055228  1
  O  O70  1  0.18708830  0.89379031  0.41043676  1
  O  O71  1  0.20184507  0.11199488  0.34229409  1
  O  O72  1  0.19276818  0.38628276  0.84462727  1
  O  O73  1  0.30569849  0.61282828  0.34438023  1
  O  O74  1  0.29682003  0.88936748  0.84220856  1
  O  O75  1  0.31104557  0.10714518  0.91070377  1
  O  O76  1  0.31176438  0.39233216  0.41058555  1
  O  O77  1  0.31564242  0.34390412  0.20073750  1
  O  O78  1  0.31701849  0.13820240  0.70201580  1
  O  O79  1  0.33079321  0.64400993  0.04457637  1
  O  O80  1  0.33128490  0.85657082  0.54415259  1
  O  O81  1  0.38244598  0.53583031  0.54345083  1
  O  O82  1  0.38202661  0.96330032  0.04336678  1
  O  O83  1  0.39230888  0.08710356  0.42156428  1
  O  O84  1  0.38873284  0.40929050  0.92185869  1
  O  O85  1  0.39837203  0.57651915  0.83904943  1
  O  O86  1  0.40284769  0.91583059  0.34066311  1
  O  O87  1  0.40202938  0.18346864  0.10915749  1
  O  O88  1  0.39806104  0.31288302  0.60881292  1
  O  O89  1  0.41797037  0.01952810  0.21136134  1
  O  O90  1  0.41840906  0.48981998  0.71411386  1
  O  O91  1  0.42361800  0.70481551  0.64279362  1
  O  O92  1  0.42443681  0.80016763  0.14292496  1
  O  O93  1  0.42597673  0.75284468  0.24441413  1
  O  O94  1  0.42486576  0.76429313  0.74219310  1
  O  O95  1  0.43117617  0.23887030  0.01044369  1
  O  O96  1  0.42984533  0.26064353  0.51000854  1
  O  O97  1  0.57078370  0.74068118  0.48858142  1
  O  O98  1  0.57211382  0.75804742  0.98955158  1
  O  O99  1  0.57936614  0.24471065  0.25773354  1
  O  O100  1  0.58232478  0.26440913  0.75820168  1
  O  O101  1  0.58479935  0.20356042  0.85705167  1
  O  O102  1  0.58332124  0.29050469  0.35641862  1
  O  O103  1  0.58556386  0.51793005  0.29142057  1
  O  O104  1  0.58452254  0.98833213  0.78599451  1
  O  O105  1  0.59722614  0.68349262  0.39043097  1
  O  O106  1  0.60108366  0.81320653  0.89140756  1
  O  O107  1  0.60537078  0.41101592  0.15861565  1
  O  O108  1  0.59954532  0.07663487  0.66101581  1
  O  O109  1  0.61017569  0.58943131  0.07921650  1
  O  O110  1  0.61275390  0.91006310  0.57782646  1
  O  O111  1  0.61484243  0.46571302  0.45621438  1
  O  O112  1  0.61480983  0.03309878  0.95695972  1
  O  O113  1  0.66888027  0.14561798  0.45417485  1
  O  O114  1  0.66960834  0.35354497  0.95350080  1
  O  O115  1  0.68061186  0.63856069  0.79932524  1
  O  O116  1  0.67893800  0.85140775  0.29887706  1
  O  O117  1  0.68449923  0.60176535  0.58645697  1
  O  O118  1  0.68494217  0.89785465  0.08618590  1
  O  O119  1  0.68695564  0.11000715  0.15631283  1
  O  O120  1  0.69743809  0.38765126  0.65670976  1
  O  O121  1  0.80563175  0.61259654  0.15823642  1
  O  O122  1  0.80573113  0.88427593  0.65693308  1
  O  O123  1  0.81346532  0.10375901  0.59130632  1
  O  O124  1  0.81652944  0.40032302  0.08980795  1
  O  O125  1  0.81918411  0.14696051  0.79822815  1
  O  O126  1  0.81839692  0.35787624  0.29802444  1
  O  O127  1  0.82901934  0.64675406  0.45358540  1
  O  O128  1  0.83018171  0.85346746  0.95497179  1
  O  O129  1  0.88589739  0.96592595  0.45573304  1
  O  O130  1  0.88598960  0.53450478  0.95608466  1
  O  O131  1  0.88733632  0.09316450  0.08200693  1
  O  O132  1  0.89062416  0.41055136  0.58059361  1
  O  O133  1  0.89440189  0.58656999  0.65892687  1
  O  O134  1  0.89016414  0.91475111  0.16033322  1
  O  O135  1  0.89964269  0.18893862  0.39043663  1
  O  O136  1  0.90098511  0.31507627  0.89016181  1
  O  O137  1  0.90510529  0.01673557  0.28964312  1
  O  O138  1  0.91413995  0.48163990  0.79183771  1
  O  O139  1  0.91413517  0.70668812  0.85740752  1
  O  O140  1  0.91436066  0.79269375  0.35706849  1
  O  O141  1  0.91712960  0.73890283  0.25881123  1
  O  O142  1  0.91795664  0.75640323  0.75889954  1
  O  O143  1  0.92373665  0.23539616  0.48936232  1
  O  O144  1  0.92560161  0.26412200  0.98877075  1
