# generated using pymatgen
data_Li4V3P8O29
_symmetry_space_group_name_H-M   'P 1'
_cell_length_a   9.74752100
_cell_length_b   9.74983118
_cell_length_c   14.25744278
_cell_angle_alpha   90.71322090
_cell_angle_beta   89.71680807
_cell_angle_gamma   119.69921270
_symmetry_Int_Tables_number   1
_chemical_formula_structural   Li4V3P8O29
_chemical_formula_sum   'Li8 V6 P16 O58'
_cell_volume   1176.89527124
_cell_formula_units_Z   2
loop_
 _symmetry_equiv_pos_site_id
 _symmetry_equiv_pos_as_xyz
  1  'x, y, z'
loop_
 _atom_site_type_symbol
 _atom_site_label
 _atom_site_symmetry_multiplicity
 _atom_site_fract_x
 _atom_site_fract_y
 _atom_site_fract_z
 _atom_site_occupancy
  Li  Li0  1  0.66844800  0.76702400  0.04938500  1
  Li  Li1  1  0.09266300  0.32878200  0.06281900  1
  Li  Li2  1  0.76664700  0.66871600  0.44492800  1
  Li  Li3  1  0.23234900  0.32890000  0.56428400  1
  Li  Li4  1  0.90816600  0.67129800  0.93501700  1
  Li  Li5  1  0.32435200  0.09057800  0.44184000  1
  Li  Li6  1  0.04853600  0.03782200  0.99215600  1
  Li  Li7  1  0.94592900  0.98737700  0.51355400  1
  V  V8  1  0.56471100  0.56390300  0.24882500  1
  V  V9  1  0.43384500  0.43262800  0.75018500  1
  V  V10  1  0.00331700  0.56349600  0.74611300  1
  V  V11  1  0.99634000  0.43351300  0.25151200  1
  V  V12  1  0.43694200  0.99677000  0.24959300  1
  V  V13  1  0.56524900  0.00320400  0.75352900  1
  P  P14  1  0.21806600  0.91784600  0.83759200  1
  P  P15  1  0.08228300  0.78039300  0.33579700  1
  P  P16  1  0.69542400  0.91667200  0.34457300  1
  P  P17  1  0.33534300  0.66470500  0.13290100  1
  P  P18  1  0.33695400  0.66809100  0.63237300  1
  P  P19  1  0.68681500  0.77649400  0.83828400  1
  P  P20  1  0.77469100  0.68499200  0.65868700  1
  P  P21  1  0.08802100  0.31261200  0.84564900  1
  P  P22  1  0.91307200  0.68415700  0.15283900  1
  P  P23  1  0.22769600  0.31763900  0.34370300  1
  P  P24  1  0.30607700  0.21736400  0.16367800  1
  P  P25  1  0.66437300  0.33349400  0.36701200  1
  P  P26  1  0.66993300  0.33870400  0.86716700  1
  P  P27  1  0.31107300  0.08410300  0.65469300  1
  P  P28  1  0.91229300  0.21261500  0.66566600  1
  P  P29  1  0.77822300  0.08075600  0.16048000  1
  O  O30  1  0.23393700  0.01177700  0.56315600  1
  O  O31  1  0.25718000  0.92044000  0.33615400  1
  O  O32  1  0.97898300  0.75791400  0.06102500  1
  O  O33  1  0.08378600  0.74058800  0.83497000  1
  O  O34  1  0.38100800  0.92614200  0.82954300  1
  O  O35  1  0.33286900  0.81035300  0.18224500  1
  O  O36  1  0.53937600  0.92196400  0.32989300  1
  O  O37  1  0.78171400  0.98905200  0.07734900  1
  O  O38  1  0.65870800  0.91951100  0.83488400  1
  O  O39  1  0.18487800  0.66301300  0.68001000  1
  O  O40  1  0.08259600  0.62374400  0.32755100  1
  O  O41  1  0.47762700  0.81258000  0.68284000  1
  O  O42  1  0.35476400  0.67587500  0.02933200  1
  O  O43  1  0.33211700  0.67488300  0.52870300  1
  O  O44  1  0.48866500  0.67151300  0.17695100  1
  O  O45  1  0.08148200  0.46570500  0.82992800  1
  O  O46  1  0.18764900  0.51211900  0.16700900  1
  O  O47  1  0.65762600  0.74036000  0.33543000  1
  O  O48  1  0.79722900  0.79886900  0.74745500  1
  O  O49  1  0.78950700  0.76974200  0.56902200  1
  O  O50  1  0.77670000  0.78024600  0.92529300  1
  O  O51  1  0.53086000  0.62386700  0.82652000  1
  O  O52  1  0.32853800  0.51208200  0.66523700  1
  O  O53  1  0.74005000  0.65641800  0.16330100  1
  O  O54  1  0.38394700  0.47420300  0.32461300  1
  O  O55  1  0.08778900  0.34702600  0.33343900  1
  O  O56  1  0.01177200  0.80300200  0.23684600  1
  O  O57  1  0.98895600  0.79613600  0.41391500  1
  O  O58  1  0.00314900  0.19676700  0.58540300  1
  O  O59  1  0.91366000  0.65008400  0.66803300  1
  O  O60  1  0.61729200  0.53163200  0.67043100  1
  O  O61  1  0.25839200  0.34635200  0.82939300  1
  O  O62  1  0.66770000  0.48478800  0.32029000  1
  O  O63  1  0.46100000  0.37999800  0.17294000  1
  O  O64  1  0.20312700  0.20552300  0.08352100  1
  O  O65  1  0.23257800  0.24298200  0.43383900  1
  O  O66  1  0.21018600  0.19854500  0.25984200  1
  O  O67  1  0.33754800  0.25423000  0.66165900  1
  O  O68  1  0.82030600  0.48755200  0.82470000  1
  O  O69  1  0.91108900  0.52687700  0.17144700  1
  O  O70  1  0.52328300  0.33308800  0.82295700  1
  O  O71  1  0.68003000  0.34627300  0.97138600  1
  O  O72  1  0.65846200  0.35143100  0.47047900  1
  O  O73  1  0.50971300  0.18493400  0.32801100  1
  O  O74  1  0.92135300  0.37661500  0.67285900  1
  O  O75  1  0.80510000  0.32517200  0.32372500  1
  O  O76  1  0.34663200  0.08347400  0.16727000  1
  O  O77  1  0.19557300  0.98830000  0.74021500  1
  O  O78  1  0.19483700  0.99951300  0.91931400  1
  O  O79  1  0.46782900  0.08446200  0.67405800  1
  O  O80  1  0.67061800  0.18905000  0.82184200  1
  O  O81  1  0.61827000  0.08040300  0.17581500  1
  O  O82  1  0.91688100  0.25218700  0.16146800  1
  O  O83  1  0.02611600  0.23507000  0.93824500  1
  O  O84  1  0.98524900  0.19259900  0.76271900  1
  O  O85  1  0.73841700  0.08028300  0.66657100  1
  O  O86  1  0.78736600  0.99096400  0.43059700  1
  O  O87  1  0.80009400  0.00132900  0.25351900  1
