# generated using pymatgen
data_LiMn(PO3)4
_symmetry_space_group_name_H-M   'P 1'
_cell_length_a   9.29055500
_cell_length_b   7.36916800
_cell_length_c   15.11900380
_cell_angle_alpha   66.47895075
_cell_angle_beta   90.00000000
_cell_angle_gamma   90.00000000
_symmetry_Int_Tables_number   1
_chemical_formula_structural   LiMn(PO3)4
_chemical_formula_sum   'Li4 Mn4 P16 O48'
_cell_volume   949.09933509
_cell_formula_units_Z   4
loop_
 _symmetry_equiv_pos_site_id
 _symmetry_equiv_pos_as_xyz
  1  'x, y, z'
loop_
 _atom_site_type_symbol
 _atom_site_label
 _atom_site_symmetry_multiplicity
 _atom_site_fract_x
 _atom_site_fract_y
 _atom_site_fract_z
 _atom_site_occupancy
  Li  Li0  1  0.57090700  0.88414100  0.08750700  1
  Li  Li1  1  0.07090700  0.11585900  0.41249300  1
  Li  Li2  1  0.92909300  0.88414100  0.58750700  1
  Li  Li3  1  0.42909300  0.11585900  0.91249300  1
  Mn  Mn4  1  0.65360200  0.33846300  0.64151300  1
  Mn  Mn5  1  0.84639800  0.33846300  0.14151300  1
  Mn  Mn6  1  0.15360200  0.66153700  0.85848700  1
  Mn  Mn7  1  0.34639800  0.66153700  0.35848700  1
  P  P8  1  0.27736700  0.35798200  0.57423700  1
  P  P9  1  0.04775800  0.65106600  0.21582700  1
  P  P10  1  0.23447300  0.77255700  0.04161300  1
  P  P11  1  0.05206200  0.07715100  0.69673800  1
  P  P12  1  0.73447300  0.22744300  0.45838700  1
  P  P13  1  0.54775800  0.34893400  0.28417300  1
  P  P14  1  0.55206200  0.92284900  0.80326200  1
  P  P15  1  0.22263300  0.35798200  0.07423700  1
  P  P16  1  0.77736700  0.64201800  0.92576300  1
  P  P17  1  0.44793800  0.07715100  0.19673800  1
  P  P18  1  0.45224200  0.65106600  0.71582700  1
  P  P19  1  0.26552700  0.77255700  0.54161300  1
  P  P20  1  0.94793800  0.92284900  0.30326200  1
  P  P21  1  0.76552700  0.22744300  0.95838700  1
  P  P22  1  0.95224200  0.34893400  0.78417300  1
  P  P23  1  0.72263300  0.64201800  0.42576300  1
  O  O24  1  0.36246700  0.90146000  0.03463800  1
  O  O25  1  0.11857800  0.79956100  0.11418100  1
  O  O26  1  0.05764800  0.19182800  0.76695300  1
  O  O27  1  0.29103200  0.42396800  0.46479900  1
  O  O28  1  0.15662600  0.57127000  0.29491900  1
  O  O29  1  0.78298800  0.45560500  0.40468200  1
  O  O30  1  0.40433000  0.26270000  0.63352100  1
  O  O31  1  0.45202200  0.49794100  0.29950800  1
  O  O32  1  0.13590900  0.22467100  0.60074900  1
  O  O33  1  0.64812700  0.10386900  0.75725500  1
  O  O34  1  0.95202200  0.50205900  0.20049200  1
  O  O35  1  0.90732900  0.04734600  0.66322400  1
  O  O36  1  0.65545400  0.20089000  0.55088000  1
  O  O37  1  0.28298800  0.54439500  0.09531800  1
  O  O38  1  0.65662600  0.42873000  0.20508100  1
  O  O39  1  0.79103200  0.57603200  0.03520100  1
  O  O40  1  0.15545400  0.79911000  0.94912000  1
  O  O41  1  0.40732900  0.95265400  0.83677600  1
  O  O42  1  0.61857800  0.20043900  0.38581900  1
  O  O43  1  0.14812700  0.89613100  0.74274500  1
  O  O44  1  0.86246700  0.09854000  0.46536200  1
  O  O45  1  0.63590900  0.77532900  0.89925100  1
  O  O46  1  0.44235200  0.19182800  0.26695300  1
  O  O47  1  0.90433000  0.73730000  0.86647900  1
  O  O48  1  0.09567000  0.26270000  0.13352100  1
  O  O49  1  0.55764800  0.80817200  0.73304700  1
  O  O50  1  0.36409100  0.22467100  0.10074900  1
  O  O51  1  0.13753300  0.90146000  0.53463800  1
  O  O52  1  0.85187300  0.10386900  0.25725500  1
  O  O53  1  0.38142200  0.79956100  0.61418100  1
  O  O54  1  0.59267100  0.04734600  0.16322400  1
  O  O55  1  0.84454600  0.20089000  0.05088000  1
  O  O56  1  0.20896800  0.42396800  0.96479900  1
  O  O57  1  0.34337400  0.57127000  0.79491900  1
  O  O58  1  0.71701200  0.45560500  0.90468200  1
  O  O59  1  0.34454600  0.79911000  0.44912000  1
  O  O60  1  0.09267100  0.95265400  0.33677600  1
  O  O61  1  0.04797800  0.49794100  0.79950800  1
  O  O62  1  0.35187300  0.89613100  0.24274500  1
  O  O63  1  0.86409100  0.77532900  0.39925100  1
  O  O64  1  0.54797800  0.50205900  0.70049200  1
  O  O65  1  0.59567000  0.73730000  0.36647900  1
  O  O66  1  0.21701200  0.54439500  0.59531800  1
  O  O67  1  0.84337400  0.42873000  0.70508100  1
  O  O68  1  0.70896800  0.57603200  0.53520100  1
  O  O69  1  0.94235200  0.80817200  0.23304700  1
  O  O70  1  0.88142200  0.20043900  0.88581900  1
  O  O71  1  0.63753300  0.09854000  0.96536200  1
