# generated using pymatgen
data_Li2MnSn(PO4)2
_symmetry_space_group_name_H-M   'P 1'
_cell_length_a   11.02733144
_cell_length_b   6.52401500
_cell_length_c   4.88174680
_cell_angle_alpha   89.99997874
_cell_angle_beta   88.61207266
_cell_angle_gamma   89.99987607
_symmetry_Int_Tables_number   1
_chemical_formula_structural   Li2MnSn(PO4)2
_chemical_formula_sum   'Li4 Mn2 Sn2 P4 O16'
_cell_volume   351.10191299
_cell_formula_units_Z   2
loop_
 _symmetry_equiv_pos_site_id
 _symmetry_equiv_pos_as_xyz
  1  'x, y, z'
loop_
 _atom_site_type_symbol
 _atom_site_label
 _atom_site_symmetry_multiplicity
 _atom_site_fract_x
 _atom_site_fract_y
 _atom_site_fract_z
 _atom_site_occupancy
  Li  Li0  1  0.99999800  0.99999500  0.99999300  1
  Li  Li1  1  0.99999600  0.50000300  0.99999300  1
  Li  Li2  1  0.49999600  0.99998700  0.49996700  1
  Li  Li3  1  0.49999500  0.50001700  0.49995900  1
  Mn  Mn4  1  0.21191600  0.74999400  0.44271200  1
  Mn  Mn5  1  0.78808100  0.25000300  0.55731700  1
  Sn  Sn6  1  0.28033700  0.24999800  0.97034900  1
  Sn  Sn7  1  0.71966100  0.75001200  0.02968400  1
  P  P8  1  0.07675400  0.24999800  0.41450600  1
  P  P9  1  0.39606700  0.75000000  0.85784300  1
  P  P10  1  0.60394900  0.24999900  0.14217300  1
  P  P11  1  0.92323600  0.75000000  0.58548400  1
  O  O12  1  0.05201500  0.75000000  0.71017300  1
  O  O13  1  0.07402000  0.24999700  0.73035200  1
  O  O14  1  0.14543200  0.05716800  0.29066400  1
  O  O15  1  0.14543100  0.44283100  0.29066600  1
  O  O16  1  0.33523300  0.56050200  0.71765000  1
  O  O17  1  0.33523000  0.93949800  0.71764900  1
  O  O18  1  0.37937500  0.74999900  0.17097100  1
  O  O19  1  0.46906600  0.25000000  0.24650100  1
  O  O20  1  0.53094100  0.75000000  0.75347400  1
  O  O21  1  0.62065400  0.24999700  0.82905500  1
  O  O22  1  0.66477400  0.06049900  0.28238200  1
  O  O23  1  0.66477400  0.43949900  0.28237600  1
  O  O24  1  0.85456500  0.55717200  0.70933100  1
  O  O25  1  0.85456100  0.94282800  0.70933100  1
  O  O26  1  0.92596700  0.75000300  0.26963400  1
  O  O27  1  0.94797800  0.24999900  0.28981000  1
