# generated using pymatgen
data_LiMnPO4
_symmetry_space_group_name_H-M   'P 1'
_cell_length_a   10.29224600
_cell_length_b   5.98121100
_cell_length_c   10.09728327
_cell_angle_alpha   86.44459480
_cell_angle_beta   90.00000000
_cell_angle_gamma   90.00000000
_symmetry_Int_Tables_number   1
_chemical_formula_structural   LiMnPO4
_chemical_formula_sum   'Li8 Mn8 P8 O32'
_cell_volume   620.39334173
_cell_formula_units_Z   8
loop_
 _symmetry_equiv_pos_site_id
 _symmetry_equiv_pos_as_xyz
  1  'x, y, z'
loop_
 _atom_site_type_symbol
 _atom_site_label
 _atom_site_symmetry_multiplicity
 _atom_site_fract_x
 _atom_site_fract_y
 _atom_site_fract_z
 _atom_site_occupancy
  Li  Li0  1  0.89824300  0.85813000  0.47779300  1
  Li  Li1  1  0.60175700  0.85813000  0.97779300  1
  Li  Li2  1  0.40771200  0.62860800  0.78007400  1
  Li  Li3  1  0.09228800  0.62860800  0.28007400  1
  Li  Li4  1  0.90771200  0.37139200  0.71992600  1
  Li  Li5  1  0.59228800  0.37139200  0.21992600  1
  Li  Li6  1  0.39824300  0.14187000  0.02220700  1
  Li  Li7  1  0.10175700  0.14187000  0.52220700  1
  Mn  Mn8  1  0.16917600  0.87858300  0.86796900  1
  Mn  Mn9  1  0.33082400  0.87858300  0.36796900  1
  Mn  Mn10  1  0.64531300  0.62641200  0.64145400  1
  Mn  Mn11  1  0.85468700  0.62641200  0.14145400  1
  Mn  Mn12  1  0.14531300  0.37358800  0.85854600  1
  Mn  Mn13  1  0.35468700  0.37358800  0.35854600  1
  Mn  Mn14  1  0.66917600  0.12141700  0.63203100  1
  Mn  Mn15  1  0.83082400  0.12141700  0.13203100  1
  P  P16  1  0.89187900  0.87004000  0.84691200  1
  P  P17  1  0.60812100  0.87004000  0.34691200  1
  P  P18  1  0.14566900  0.62518600  0.59752800  1
  P  P19  1  0.35433100  0.62518600  0.09752800  1
  P  P20  1  0.64566900  0.37481400  0.90247200  1
  P  P21  1  0.85433100  0.37481400  0.40247200  1
  P  P22  1  0.39187900  0.12996000  0.65308800  1
  P  P23  1  0.10812100  0.12996000  0.15308800  1
  O  O24  1  0.80768500  0.87972500  0.97705000  1
  O  O25  1  0.48259800  0.91967600  0.66757700  1
  O  O26  1  0.69231500  0.87972500  0.47705000  1
  O  O27  1  0.01740200  0.91967600  0.16757700  1
  O  O28  1  0.79846700  0.86123400  0.72563300  1
  O  O29  1  0.06021200  0.83222500  0.57694300  1
  O  O30  1  0.70153300  0.86123400  0.22563300  1
  O  O31  1  0.43978800  0.83222500  0.07694300  1
  O  O32  1  0.23462800  0.65163500  0.72168300  1
  O  O33  1  0.98171000  0.65915200  0.86384700  1
  O  O34  1  0.26537200  0.65163500  0.22168300  1
  O  O35  1  0.51829000  0.65915200  0.36384700  1
  O  O36  1  0.57115200  0.59636400  0.86665700  1
  O  O37  1  0.26869700  0.59876300  0.97141600  1
  O  O38  1  0.92884800  0.59636400  0.36665700  1
  O  O39  1  0.23130300  0.59876300  0.47141600  1
  O  O40  1  0.76869700  0.40123700  0.52858400  1
  O  O41  1  0.07115200  0.40363600  0.63334300  1
  O  O42  1  0.73130300  0.40123700  0.02858400  1
  O  O43  1  0.42884800  0.40363600  0.13334300  1
  O  O44  1  0.48171000  0.34084800  0.63615300  1
  O  O45  1  0.73462800  0.34836500  0.77831700  1
  O  O46  1  0.01829000  0.34084800  0.13615300  1
  O  O47  1  0.76537200  0.34836500  0.27831700  1
  O  O48  1  0.56021200  0.16777500  0.92305700  1
  O  O49  1  0.29846700  0.13876600  0.77436700  1
  O  O50  1  0.93978800  0.16777500  0.42305700  1
  O  O51  1  0.20153300  0.13876600  0.27436700  1
  O  O52  1  0.98259800  0.08032400  0.83242300  1
  O  O53  1  0.30768500  0.12027500  0.52295000  1
  O  O54  1  0.51740200  0.08032400  0.33242300  1
  O  O55  1  0.19231500  0.12027500  0.02295000  1
