# generated using pymatgen
data_Li7Mn4(P2O7)4
_symmetry_space_group_name_H-M   'P 1'
_cell_length_a   9.90579700
_cell_length_b   9.91138910
_cell_length_c   11.34523934
_cell_angle_alpha   102.65985336
_cell_angle_beta   90.11584167
_cell_angle_gamma   90.34443961
_symmetry_Int_Tables_number   1
_chemical_formula_structural   Li7Mn4(P2O7)4
_chemical_formula_sum   'Li14 Mn8 P16 O56'
_cell_volume   1086.77174608
_cell_formula_units_Z   2
loop_
 _symmetry_equiv_pos_site_id
 _symmetry_equiv_pos_as_xyz
  1  'x, y, z'
loop_
 _atom_site_type_symbol
 _atom_site_label
 _atom_site_symmetry_multiplicity
 _atom_site_fract_x
 _atom_site_fract_y
 _atom_site_fract_z
 _atom_site_occupancy
  Li  Li0  1  0.28823300  0.11454300  0.44988100  1
  Li  Li1  1  0.89386800  0.08534300  0.02835200  1
  Li  Li2  1  0.09117300  0.34520300  0.95637500  1
  Li  Li3  1  0.58790300  0.15022000  0.04258200  1
  Li  Li4  1  0.39105200  0.41497600  0.96977500  1
  Li  Li5  1  0.07801800  0.32942400  0.45478400  1
  Li  Li6  1  0.77470700  0.38120200  0.55236900  1
  Li  Li7  1  0.22228600  0.61229600  0.44885800  1
  Li  Li8  1  0.92104700  0.66995900  0.54687200  1
  Li  Li9  1  0.60619500  0.58589200  0.02767200  1
  Li  Li10  1  0.90785000  0.65706800  0.04156300  1
  Li  Li11  1  0.11072000  0.91259400  0.97252700  1
  Li  Li12  1  0.42782100  0.83826200  0.46158300  1
  Li  Li13  1  0.71859400  0.89597900  0.55370800  1
  Mn  Mn14  1  0.08111500  0.20331100  0.67566100  1
  Mn  Mn15  1  0.78332400  0.25321900  0.82115000  1
  Mn  Mn16  1  0.28528800  0.24073400  0.17362100  1
  Mn  Mn17  1  0.57338000  0.29381500  0.33288500  1
  Mn  Mn18  1  0.41935700  0.70607100  0.68246300  1
  Mn  Mn19  1  0.71060500  0.75858100  0.82573700  1
  Mn  Mn20  1  0.21674600  0.74430200  0.17399300  1
  Mn  Mn21  1  0.92018100  0.79937500  0.32594100  1
  P  P22  1  0.54565900  0.02400500  0.75588200  1
  P  P23  1  0.29482300  0.11717100  0.89109000  1
  P  P24  1  0.06903100  0.05852600  0.24411400  1
  P  P25  1  0.84856600  0.12427600  0.42530700  1
  P  P26  1  0.35154200  0.37893800  0.57303700  1
  P  P27  1  0.56893300  0.44160900  0.75703900  1
  P  P28  1  0.95078500  0.52545500  0.75987500  1
  P  P29  1  0.79436700  0.38090500  0.10810100  1
  P  P30  1  0.20510500  0.61877900  0.89017600  1
  P  P31  1  0.04717500  0.47444900  0.23954900  1
  P  P32  1  0.43268900  0.55797200  0.24325100  1
  P  P33  1  0.64902200  0.62234100  0.42614200  1
  P  P34  1  0.15061200  0.87720400  0.57427000  1
  P  P35  1  0.93251600  0.94012500  0.75667500  1
  P  P36  1  0.70568700  0.88063200  0.10858300  1
  P  P37  1  0.45276700  0.97272500  0.24120000  1
  O  O38  1  0.58413500  0.02211400  0.62812300  1
  O  O39  1  0.16201400  0.02349700  0.55333900  1
  O  O40  1  0.91354600  0.08532200  0.73087000  1
  O  O41  1  0.63821100  0.11045500  0.85500800  1
  O  O42  1  0.39855700  0.09287600  0.77638100  1
  O  O43  1  0.17346100  0.18699500  0.84450500  1
  O  O44  1  0.36641900  0.22332100  0.99657900  1
  O  O45  1  0.72430300  0.01932600  0.07617400  1
  O  O46  1  0.92265200  0.11243700  0.29529000  1
  O  O47  1  0.06579300  0.06360900  0.11185300  1
  O  O48  1  0.46776100  0.12295900  0.21641900  1
  O  O49  1  0.71368100  0.19191900  0.41181200  1
  O  O50  1  0.17459000  0.16330800  0.31314700  1
  O  O51  1  0.93601400  0.22360600  0.51871700  1
  O  O52  1  0.42819000  0.28234100  0.47348200  1
  O  O53  1  0.68114400  0.34482000  0.69546400  1
  O  O54  1  0.21030000  0.31701500  0.58306700  1
  O  O55  1  0.96285800  0.37770000  0.78707500  1
  O  O56  1  0.42443200  0.38243100  0.70111600  1
  O  O57  1  0.56069500  0.43900100  0.88952000  1
  O  O58  1  0.22199200  0.48085200  0.92494900  1
  O  O59  1  0.86416300  0.27708300  0.00200900  1
  O  O60  1  0.66971900  0.31686100  0.15370900  1
  O  O61  1  0.89854400  0.40536900  0.22324000  1
  O  O62  1  0.41453400  0.41271400  0.27081400  1
  O  O63  1  0.13754300  0.38484500  0.14382900  1
  O  O64  1  0.91324500  0.52190200  0.62931700  1
  O  O65  1  0.65717500  0.47371200  0.44424000  1
  O  O66  1  0.34232700  0.53104600  0.56103700  1
  O  O67  1  0.08550600  0.47675400  0.36968900  1
  O  O68  1  0.85960000  0.61596400  0.85488100  1
  O  O69  1  0.58511900  0.58754200  0.72907300  1
  O  O70  1  0.09842200  0.59518900  0.77663600  1
  O  O71  1  0.32788800  0.67757800  0.84040500  1
  O  O72  1  0.13476900  0.72196800  0.99687600  1
  O  O73  1  0.77674500  0.51994600  0.07593000  1
  O  O74  1  0.43516900  0.56158300  0.11118100  1
  O  O75  1  0.58011800  0.61415200  0.29502900  1
  O  O76  1  0.03748400  0.62350100  0.21409500  1
  O  O77  1  0.78999400  0.68491600  0.41839400  1
  O  O78  1  0.32685400  0.66197900  0.31082000  1
  O  O79  1  0.56374200  0.72295600  0.51805600  1
  O  O80  1  0.06465700  0.77478200  0.48237400  1
  O  O81  1  0.82738300  0.83488100  0.68735100  1
  O  O82  1  0.29059300  0.81218700  0.58320100  1
  O  O83  1  0.53597200  0.87299200  0.78079100  1
  O  O84  1  0.93568300  0.93569800  0.88892200  1
  O  O85  1  0.08010700  0.88664900  0.70458600  1
  O  O86  1  0.26968400  0.98192200  0.92349200  1
  O  O87  1  0.64517200  0.77158300  0.00273100  1
  O  O88  1  0.83089300  0.82077600  0.15775900  1
  O  O89  1  0.59928800  0.90170900  0.22110200  1
  O  O90  1  0.35517500  0.88893900  0.14836700  1
  O  O91  1  0.08773100  0.91243400  0.26908200  1
  O  O92  1  0.83778900  0.97665100  0.44486100  1
  O  O93  1  0.41562400  0.97529600  0.37065600  1
