# generated using pymatgen
data_LiCu2F5
_symmetry_space_group_name_H-M   'P 1'
_cell_length_a   3.14399800
_cell_length_b   10.02313300
_cell_length_c   13.42653500
_cell_angle_alpha   90.00000000
_cell_angle_beta   90.00000000
_cell_angle_gamma   90.00000000
_symmetry_Int_Tables_number   1
_chemical_formula_structural   LiCu2F5
_chemical_formula_sum   'Li4 Cu8 F20'
_cell_volume   423.10650518
_cell_formula_units_Z   4
loop_
 _symmetry_equiv_pos_site_id
 _symmetry_equiv_pos_as_xyz
  1  'x, y, z'
loop_
 _atom_site_type_symbol
 _atom_site_label
 _atom_site_symmetry_multiplicity
 _atom_site_fract_x
 _atom_site_fract_y
 _atom_site_fract_z
 _atom_site_occupancy
  Li  Li0  1  0.76390900  0.75000000  0.23234000  1
  Li  Li1  1  0.26390900  0.25000000  0.26766000  1
  Li  Li2  1  0.73609100  0.75000000  0.73234000  1
  Li  Li3  1  0.23609100  0.25000000  0.76766000  1
  Cu  Cu4  1  0.27411100  0.59021600  0.07253200  1
  Cu  Cu5  1  0.27411100  0.90978400  0.07253200  1
  Cu  Cu6  1  0.77411100  0.09021600  0.42746800  1
  Cu  Cu7  1  0.77411100  0.40978400  0.42746800  1
  Cu  Cu8  1  0.22588900  0.59021600  0.57253200  1
  Cu  Cu9  1  0.22588900  0.90978400  0.57253200  1
  Cu  Cu10  1  0.72588900  0.09021600  0.92746800  1
  Cu  Cu11  1  0.72588900  0.40978400  0.92746800  1
  F  F12  1  0.89568700  0.75000000  0.05480500  1
  F  F13  1  0.70866400  0.05448100  0.06986800  1
  F  F14  1  0.70866400  0.44551900  0.06986800  1
  F  F15  1  0.27646500  0.62333100  0.20865300  1
  F  F16  1  0.27646500  0.87666900  0.20865300  1
  F  F17  1  0.77646500  0.12333100  0.29134700  1
  F  F18  1  0.77646500  0.37666900  0.29134700  1
  F  F19  1  0.20866400  0.55448100  0.43013200  1
  F  F20  1  0.20866400  0.94551900  0.43013200  1
  F  F21  1  0.39568700  0.25000000  0.44519500  1
  F  F22  1  0.60431300  0.75000000  0.55480500  1
  F  F23  1  0.79133600  0.05448100  0.56986800  1
  F  F24  1  0.79133600  0.44551900  0.56986800  1
  F  F25  1  0.22353500  0.62333100  0.70865300  1
  F  F26  1  0.22353500  0.87666900  0.70865300  1
  F  F27  1  0.72353500  0.12333100  0.79134700  1
  F  F28  1  0.72353500  0.37666900  0.79134700  1
  F  F29  1  0.29133600  0.55448100  0.93013200  1
  F  F30  1  0.29133600  0.94551900  0.93013200  1
  F  F31  1  0.10431300  0.25000000  0.94519500  1
