# generated using pymatgen
data_Li9Mn7Cr12O48
_symmetry_space_group_name_H-M   'P 1'
_cell_length_a   5.14581800
_cell_length_b   10.33076807
_cell_length_c   17.52119793
_cell_angle_alpha   90.06958433
_cell_angle_beta   90.25748070
_cell_angle_gamma   90.05088575
_symmetry_Int_Tables_number   1
_chemical_formula_structural   Li9Mn7Cr12O48
_chemical_formula_sum   'Li9 Mn7 Cr12 O48'
_cell_volume   931.42083868
_cell_formula_units_Z   1
loop_
 _symmetry_equiv_pos_site_id
 _symmetry_equiv_pos_as_xyz
  1  'x, y, z'
loop_
 _atom_site_type_symbol
 _atom_site_label
 _atom_site_symmetry_multiplicity
 _atom_site_fract_x
 _atom_site_fract_y
 _atom_site_fract_z
 _atom_site_occupancy
  Li  Li0  1  0.90656500  0.24851200  0.75085800  1
  Li  Li1  1  0.75331400  0.42227500  0.02916300  1
  Li  Li2  1  0.75110500  0.58163100  0.52690200  1
  Li  Li3  1  0.75071500  0.91857600  0.52686900  1
  Li  Li4  1  0.74301200  0.25265200  0.19830900  1
  Li  Li5  1  0.25351300  0.75362700  0.80580900  1
  Li  Li6  1  0.24913700  0.92197100  0.97090800  1
  Li  Li7  1  0.23658000  0.25126700  0.29776100  1
  Li  Li8  1  0.09167000  0.74952700  0.25179500  1
  Mn  Mn9  1  0.75156000  0.75029100  0.69863600  1
  Mn  Mn10  1  0.75441300  0.07417100  0.02651600  1
  Mn  Mn11  1  0.58889700  0.74923600  0.24852200  1
  Mn  Mn12  1  0.40774400  0.24937600  0.75204600  1
  Mn  Mn13  1  0.24727000  0.07261000  0.47264000  1
  Mn  Mn14  1  0.24781300  0.42735000  0.47286800  1
  Mn  Mn15  1  0.24900900  0.57451100  0.97341900  1
  Cr  Cr16  1  0.77827000  0.75007200  0.05595400  1
  Cr  Cr17  1  0.77027800  0.02662000  0.34326100  1
  Cr  Cr18  1  0.77165600  0.47182900  0.34385300  1
  Cr  Cr19  1  0.72288000  0.52871600  0.84516600  1
  Cr  Cr20  1  0.72476300  0.97101300  0.84403400  1
  Cr  Cr21  1  0.72031900  0.24993900  0.55616100  1
  Cr  Cr22  1  0.27668000  0.75001900  0.44346400  1
  Cr  Cr23  1  0.28197600  0.47430800  0.15760800  1
  Cr  Cr24  1  0.28108900  0.02643800  0.15655500  1
  Cr  Cr25  1  0.22644400  0.52915300  0.65547300  1
  Cr  Cr26  1  0.22536400  0.97047400  0.65485100  1
  Cr  Cr27  1  0.22275000  0.24998500  0.94451600  1
  O  O28  1  0.95323800  0.24790800  0.99999000  1
  O  O29  1  0.95301700  0.60871500  0.63070200  1
  O  O30  1  0.95208900  0.89080100  0.62972200  1
  O  O31  1  0.90073600  0.62463000  0.79038500  1
  O  O32  1  0.90649100  0.87543000  0.78915300  1
  O  O33  1  0.90017700  0.12168700  0.53435200  1
  O  O34  1  0.90018900  0.37828500  0.53460400  1
  O  O35  1  0.90526500  0.00284300  0.92138500  1
  O  O36  1  0.90342500  0.49796100  0.92228200  1
  O  O37  1  0.84120300  0.74953400  0.15012500  1
  O  O38  1  0.82384100  0.61465900  0.29588200  1
  O  O39  1  0.82062100  0.88264000  0.29500000  1
  O  O40  1  0.66047500  0.11003000  0.79743000  1
  O  O41  1  0.65979500  0.39021300  0.79860700  1
  O  O42  1  0.65326000  0.25003900  0.64881800  1
  O  O43  1  0.59657500  0.50088000  0.42162400  1
  O  O44  1  0.59555600  0.99872100  0.42115300  1
  O  O45  1  0.60202900  0.88007000  0.03458700  1
  O  O46  1  0.59449600  0.62251400  0.03460300  1
  O  O47  1  0.59894500  0.12383500  0.29053600  1
  O  O48  1  0.59835800  0.37446000  0.29134300  1
  O  O49  1  0.55204000  0.10666900  0.13040300  1
  O  O50  1  0.54688400  0.39514700  0.13189100  1
  O  O51  1  0.53981300  0.75020600  0.49910700  1
  O  O52  1  0.44571600  0.24988200  0.49825700  1
  O  O53  1  0.44864200  0.60720600  0.87080700  1
  O  O54  1  0.45562700  0.89417500  0.86919400  1
  O  O55  1  0.41452300  0.62405900  0.70846600  1
  O  O56  1  0.41392300  0.87543300  0.70734500  1
  O  O57  1  0.40717900  0.12305500  0.96623900  1
  O  O58  1  0.39898500  0.38025400  0.96619000  1
  O  O59  1  0.39880500  0.00457200  0.57706500  1
  O  O60  1  0.39911700  0.49565200  0.57747300  1
  O  O61  1  0.34663500  0.75027100  0.34987000  1
  O  O62  1  0.35220400  0.61762200  0.20575100  1
  O  O63  1  0.35104100  0.88572800  0.20428200  1
  O  O64  1  0.16131800  0.10803000  0.70212300  1
  O  O65  1  0.16248800  0.39154300  0.70261800  1
  O  O66  1  0.15939200  0.24948700  0.85045700  1
  O  O67  1  0.10238800  0.50617100  0.08030700  1
  O  O68  1  0.10166600  0.99545600  0.07925900  1
  O  O69  1  0.09415500  0.62075900  0.46369500  1
  O  O70  1  0.09384200  0.87908500  0.46365500  1
  O  O71  1  0.10435400  0.12126000  0.20985100  1
  O  O72  1  0.10044900  0.38075300  0.21057200  1
  O  O73  1  0.04806700  0.10268700  0.36882900  1
  O  O74  1  0.04885800  0.39502900  0.36952700  1
  O  O75  1  0.04731800  0.74780000  0.00057200  1
