# generated using pymatgen
data_Li2Si6Ni2O15
_symmetry_space_group_name_H-M   'P 1'
_cell_length_a   11.36358655
_cell_length_b   11.36358655
_cell_length_c   10.20796600
_cell_angle_alpha   90.00000000
_cell_angle_beta   90.00000000
_cell_angle_gamma   100.67053898
_symmetry_Int_Tables_number   1
_chemical_formula_structural   Li2Si6Ni2O15
_chemical_formula_sum   'Li8 Si24 Ni8 O60'
_cell_volume   1295.37232370
_cell_formula_units_Z   4
loop_
 _symmetry_equiv_pos_site_id
 _symmetry_equiv_pos_as_xyz
  1  'x, y, z'
loop_
 _atom_site_type_symbol
 _atom_site_label
 _atom_site_symmetry_multiplicity
 _atom_site_fract_x
 _atom_site_fract_y
 _atom_site_fract_z
 _atom_site_occupancy
  Li  Li0  1  0.50586000  0.99414000  0.75000000  1
  Li  Li1  1  0.99414000  0.50586000  0.25000000  1
  Li  Li2  1  0.39081700  0.60918300  0.74443500  1
  Li  Li3  1  0.89081700  0.10918300  0.75556500  1
  Li  Li4  1  0.10918300  0.89081700  0.24443500  1
  Li  Li5  1  0.60918300  0.39081700  0.25556500  1
  Li  Li6  1  0.00586000  0.49414000  0.75000000  1
  Li  Li7  1  0.49414000  0.00586000  0.25000000  1
  Si  Si8  1  0.03637600  0.17930900  0.19110300  1
  Si  Si9  1  0.17930900  0.03637600  0.80889700  1
  Si  Si10  1  0.58113400  0.20003000  0.45634200  1
  Si  Si11  1  0.70003000  0.08113400  0.95634200  1
  Si  Si12  1  0.20003000  0.58113400  0.54365800  1
  Si  Si13  1  0.08113400  0.70003000  0.04365800  1
  Si  Si14  1  0.46362400  0.32069100  0.69110300  1
  Si  Si15  1  0.32069100  0.46362400  0.30889700  1
  Si  Si16  1  0.26296900  0.52312600  0.00962000  1
  Si  Si17  1  0.76296900  0.02312600  0.49038000  1
  Si  Si18  1  0.02312600  0.76296900  0.50962000  1
  Si  Si19  1  0.52312600  0.26296900  0.99038000  1
  Si  Si20  1  0.23703100  0.97687400  0.50962000  1
  Si  Si21  1  0.97687400  0.23703100  0.49038000  1
  Si  Si22  1  0.73703100  0.47687400  0.99038000  1
  Si  Si23  1  0.47687400  0.73703100  0.00962000  1
  Si  Si24  1  0.53637600  0.67930900  0.30889700  1
  Si  Si25  1  0.67930900  0.53637600  0.69110300  1
  Si  Si26  1  0.79997000  0.41886600  0.45634200  1
  Si  Si27  1  0.91886600  0.29997000  0.95634200  1
  Si  Si28  1  0.41886600  0.79997000  0.54365800  1
  Si  Si29  1  0.29997000  0.91886600  0.04365800  1
  Si  Si30  1  0.82069100  0.96362400  0.19110300  1
  Si  Si31  1  0.96362400  0.82069100  0.80889700  1
  Ni  Ni32  1  0.24390100  0.24390100  0.00000000  1
  Ni  Ni33  1  0.33871700  0.16128300  0.25000000  1
  Ni  Ni34  1  0.16128300  0.33871700  0.75000000  1
  Ni  Ni35  1  0.25609900  0.25609900  0.50000000  1
  Ni  Ni36  1  0.74390100  0.74390100  0.50000000  1
  Ni  Ni37  1  0.66128300  0.83871700  0.75000000  1
  Ni  Ni38  1  0.83871700  0.66128300  0.25000000  1
  Ni  Ni39  1  0.75609900  0.75609900  0.00000000  1
  O  O40  1  0.00805200  0.23176200  0.33438500  1
  O  O41  1  0.23176200  0.00805200  0.66561500  1
  O  O42  1  0.17396200  0.17172700  0.16412200  1
  O  O43  1  0.17172700  0.17396200  0.83587800  1
  O  O44  1  0.25559700  0.09657100  0.42351300  1
  O  O45  1  0.09657100  0.25559700  0.57648700  1
  O  O46  1  0.40342900  0.24440300  0.07648700  1
  O  O47  1  0.24440300  0.40342900  0.92351300  1
  O  O48  1  0.32603800  0.32827300  0.66412200  1
  O  O49  1  0.32827300  0.32603800  0.33587800  1
  O  O50  1  0.50757000  0.15853100  0.32572900  1
  O  O51  1  0.65853100  0.00757000  0.82572900  1
  O  O52  1  0.00757000  0.65853100  0.17427100  1
  O  O53  1  0.15853100  0.50757000  0.67427100  1
  O  O54  1  0.72746400  0.00395100  0.08466000  1
  O  O55  1  0.50395100  0.22746400  0.58466000  1
  O  O56  1  0.00395100  0.72746400  0.91534000  1
  O  O57  1  0.22746400  0.50395100  0.41534000  1
  O  O58  1  0.59958900  0.15587500  0.00981900  1
  O  O59  1  0.65587500  0.09958900  0.50981900  1
  O  O60  1  0.09958900  0.65587500  0.49018100  1
  O  O61  1  0.15587500  0.59958900  0.99018100  1
  O  O62  1  0.49194800  0.26823800  0.83438500  1
  O  O63  1  0.26823800  0.49194800  0.16561500  1
  O  O64  1  0.04318900  0.95681100  0.82356100  1
  O  O65  1  0.38855900  0.61144100  0.95743700  1
  O  O66  1  0.67278600  0.32721400  0.41666500  1
  O  O67  1  0.95681100  0.04318900  0.17643900  1
  O  O68  1  0.82721400  0.17278600  0.91666500  1
  O  O69  1  0.88855900  0.11144100  0.54256300  1
  O  O70  1  0.54318900  0.45681100  0.67643900  1
  O  O71  1  0.61144100  0.38855900  0.04256300  1
  O  O72  1  0.45681100  0.54318900  0.32356100  1
  O  O73  1  0.32721400  0.67278600  0.58333500  1
  O  O74  1  0.17278600  0.82721400  0.08333500  1
  O  O75  1  0.11144100  0.88855900  0.45743700  1
  O  O76  1  0.50805200  0.73176200  0.16561500  1
  O  O77  1  0.73176200  0.50805200  0.83438500  1
  O  O78  1  0.40041100  0.84412500  0.99018100  1
  O  O79  1  0.84412500  0.40041100  0.00981900  1
  O  O80  1  0.90041100  0.34412500  0.50981900  1
  O  O81  1  0.34412500  0.90041100  0.49018100  1
  O  O82  1  0.99604900  0.27253600  0.08466000  1
  O  O83  1  0.77253600  0.49604900  0.58466000  1
  O  O84  1  0.27253600  0.99604900  0.91534000  1
  O  O85  1  0.49604900  0.77253600  0.41534000  1
  O  O86  1  0.84146900  0.49243000  0.32572900  1
  O  O87  1  0.99243000  0.34146900  0.82572900  1
  O  O88  1  0.49243000  0.84146900  0.67427100  1
  O  O89  1  0.34146900  0.99243000  0.17427100  1
  O  O90  1  0.67396200  0.67172700  0.33587800  1
  O  O91  1  0.67172700  0.67396200  0.66412200  1
  O  O92  1  0.59657100  0.75559700  0.92351300  1
  O  O93  1  0.75559700  0.59657100  0.07648700  1
  O  O94  1  0.90342900  0.74440300  0.42351300  1
  O  O95  1  0.74440300  0.90342900  0.57648700  1
  O  O96  1  0.82827300  0.82603800  0.16412200  1
  O  O97  1  0.82603800  0.82827300  0.83587800  1
  O  O98  1  0.76823800  0.99194800  0.33438500  1
  O  O99  1  0.99194800  0.76823800  0.66561500  1
