# generated using pymatgen
data_Li2Si4(NiO4)3
_symmetry_space_group_name_H-M   'P 1'
_cell_length_a   7.48123800
_cell_length_b   9.93766900
_cell_length_c   13.32537800
_cell_angle_alpha   90.00000000
_cell_angle_beta   90.00000000
_cell_angle_gamma   90.00000000
_symmetry_Int_Tables_number   1
_chemical_formula_structural   Li2Si4(NiO4)3
_chemical_formula_sum   'Li8 Si16 Ni12 O48'
_cell_volume   990.68944498
_cell_formula_units_Z   4
loop_
 _symmetry_equiv_pos_site_id
 _symmetry_equiv_pos_as_xyz
  1  'x, y, z'
loop_
 _atom_site_type_symbol
 _atom_site_label
 _atom_site_symmetry_multiplicity
 _atom_site_fract_x
 _atom_site_fract_y
 _atom_site_fract_z
 _atom_site_occupancy
  Li  Li0  1  0.04323500  0.75000000  0.14416800  1
  Li  Li1  1  0.23283100  0.75000000  0.49728700  1
  Li  Li2  1  0.26716900  0.25000000  0.99728700  1
  Li  Li3  1  0.45676500  0.25000000  0.64416800  1
  Li  Li4  1  0.54323500  0.75000000  0.35583200  1
  Li  Li5  1  0.73283100  0.75000000  0.00271300  1
  Li  Li6  1  0.76716900  0.25000000  0.50271300  1
  Li  Li7  1  0.95676500  0.25000000  0.85583200  1
  Si  Si8  1  0.18311800  0.03703100  0.61770900  1
  Si  Si9  1  0.18311800  0.46296900  0.61770900  1
  Si  Si10  1  0.22009900  0.53735500  0.33552300  1
  Si  Si11  1  0.22009900  0.96264500  0.33552300  1
  Si  Si12  1  0.27990100  0.46264500  0.83552300  1
  Si  Si13  1  0.27990100  0.03735500  0.83552300  1
  Si  Si14  1  0.31688200  0.53703100  0.11770900  1
  Si  Si15  1  0.31688200  0.96296900  0.11770900  1
  Si  Si16  1  0.68311800  0.03703100  0.88229100  1
  Si  Si17  1  0.68311800  0.46296900  0.88229100  1
  Si  Si18  1  0.72009900  0.53735500  0.16447700  1
  Si  Si19  1  0.72009900  0.96264500  0.16447700  1
  Si  Si20  1  0.77990100  0.03735500  0.66447700  1
  Si  Si21  1  0.77990100  0.46264500  0.66447700  1
  Si  Si22  1  0.81688200  0.53703100  0.38229100  1
  Si  Si23  1  0.81688200  0.96296900  0.38229100  1
  Ni  Ni24  1  0.00000000  0.00000000  0.00000000  1
  Ni  Ni25  1  0.00000000  0.50000000  0.00000000  1
  Ni  Ni26  1  0.23641300  0.75000000  0.71461600  1
  Ni  Ni27  1  0.24127800  0.75000000  0.92900500  1
  Ni  Ni28  1  0.25872200  0.25000000  0.42900500  1
  Ni  Ni29  1  0.26358700  0.25000000  0.21461600  1
  Ni  Ni30  1  0.50000000  0.00000000  0.50000000  1
  Ni  Ni31  1  0.50000000  0.50000000  0.50000000  1
  Ni  Ni32  1  0.73641300  0.75000000  0.78538400  1
  Ni  Ni33  1  0.74127800  0.75000000  0.57099500  1
  Ni  Ni34  1  0.75872200  0.25000000  0.07099500  1
  Ni  Ni35  1  0.76358700  0.25000000  0.28538400  1
  O  O36  1  0.02775800  0.58315000  0.38553900  1
  O  O37  1  0.02775800  0.91685000  0.38553900  1
  O  O38  1  0.12469800  0.10520200  0.90375300  1
  O  O39  1  0.12469800  0.39479800  0.90375300  1
  O  O40  1  0.21306400  0.87709500  0.61183800  1
  O  O41  1  0.21306400  0.62290500  0.61183800  1
  O  O42  1  0.20801900  0.61052700  0.02498900  1
  O  O43  1  0.20801900  0.88947300  0.02498900  1
  O  O44  1  0.23740700  0.12622900  0.32305100  1
  O  O45  1  0.23740700  0.37377100  0.32305100  1
  O  O46  1  0.22578000  0.60178200  0.22094700  1
  O  O47  1  0.22578000  0.89821800  0.22094700  1
  O  O48  1  0.27422000  0.10178200  0.72094700  1
  O  O49  1  0.27422000  0.39821800  0.72094700  1
  O  O50  1  0.26259300  0.62622900  0.82305100  1
  O  O51  1  0.26259300  0.87377100  0.82305100  1
  O  O52  1  0.29198100  0.11052700  0.52498900  1
  O  O53  1  0.29198100  0.38947300  0.52498900  1
  O  O54  1  0.28693600  0.37709500  0.11183800  1
  O  O55  1  0.28693600  0.12290500  0.11183800  1
  O  O56  1  0.37530200  0.60520200  0.40375300  1
  O  O57  1  0.37530200  0.89479800  0.40375300  1
  O  O58  1  0.47224200  0.08315000  0.88553900  1
  O  O59  1  0.47224200  0.41685000  0.88553900  1
  O  O60  1  0.52775800  0.91685000  0.11446100  1
  O  O61  1  0.52775800  0.58315000  0.11446100  1
  O  O62  1  0.62469800  0.10520200  0.59624700  1
  O  O63  1  0.62469800  0.39479800  0.59624700  1
  O  O64  1  0.71306400  0.62290500  0.88816200  1
  O  O65  1  0.71306400  0.87709500  0.88816200  1
  O  O66  1  0.70801900  0.61052700  0.47501100  1
  O  O67  1  0.70801900  0.88947300  0.47501100  1
  O  O68  1  0.73740700  0.12622900  0.17694900  1
  O  O69  1  0.73740700  0.37377100  0.17694900  1
  O  O70  1  0.72578000  0.60178200  0.27905300  1
  O  O71  1  0.72578000  0.89821800  0.27905300  1
  O  O72  1  0.77422000  0.10178200  0.77905300  1
  O  O73  1  0.77422000  0.39821800  0.77905300  1
  O  O74  1  0.76259300  0.62622900  0.67694900  1
  O  O75  1  0.76259300  0.87377100  0.67694900  1
  O  O76  1  0.79198100  0.11052700  0.97501100  1
  O  O77  1  0.79198100  0.38947300  0.97501100  1
  O  O78  1  0.78693600  0.12290500  0.38816200  1
  O  O79  1  0.78693600  0.37709500  0.38816200  1
  O  O80  1  0.87530200  0.60520200  0.09624700  1
  O  O81  1  0.87530200  0.89479800  0.09624700  1
  O  O82  1  0.97224200  0.08315000  0.61446100  1
  O  O83  1  0.97224200  0.41685000  0.61446100  1
