# generated using pymatgen
data_LiVPO4
_symmetry_space_group_name_H-M   'P 1'
_cell_length_a   4.93734031
_cell_length_b   4.93725104
_cell_length_c   16.18252832
_cell_angle_alpha   90.00001764
_cell_angle_beta   81.22608238
_cell_angle_gamma   119.99986164
_symmetry_Int_Tables_number   1
_chemical_formula_structural   LiVPO4
_chemical_formula_sum   'Li4 V4 P4 O16'
_cell_volume   336.28900051
_cell_formula_units_Z   4
loop_
 _symmetry_equiv_pos_site_id
 _symmetry_equiv_pos_as_xyz
  1  'x, y, z'
loop_
 _atom_site_type_symbol
 _atom_site_label
 _atom_site_symmetry_multiplicity
 _atom_site_fract_x
 _atom_site_fract_y
 _atom_site_fract_z
 _atom_site_occupancy
  Li  Li0  1  0.99509500  0.99754900  0.00737600  1
  Li  Li1  1  0.99509300  0.49754700  0.50737800  1
  Li  Li2  1  0.42943100  0.21471800  0.35586300  1
  Li  Li3  1  0.42942800  0.71471600  0.85586500  1
  V  V4  1  0.87434600  0.43717500  0.68846900  1
  V  V5  1  0.55014000  0.27506900  0.17479300  1
  V  V6  1  0.87434600  0.93717500  0.18847100  1
  V  V7  1  0.55014300  0.77506800  0.67478800  1
  P  P8  1  0.28945600  0.64472500  0.06580800  1
  P  P9  1  0.28946100  0.14472800  0.56580200  1
  P  P10  1  0.13500600  0.56750400  0.29747700  1
  P  P11  1  0.13500900  0.06750400  0.79747100  1
  O  O12  1  0.35217500  0.17608800  0.47176700  1
  O  O13  1  0.35217300  0.67608500  0.97177200  1
  O  O14  1  0.07233500  0.53616400  0.39148200  1
  O  O15  1  0.07234100  0.03616700  0.89147700  1
  O  O16  1  0.18145300  0.89054600  0.26320600  1
  O  O17  1  0.18145600  0.39054700  0.76319900  1
  O  O18  1  0.57823000  0.92135400  0.10005800  1
  O  O19  1  0.57823200  0.42135700  0.60005200  1
  O  O20  1  0.24306700  0.32170900  0.10005800  1
  O  O21  1  0.24307300  0.82171300  0.60005200  1
  O  O22  1  0.44587300  0.55534300  0.26320300  1
  O  O23  1  0.44587700  0.05534400  0.76319600  1
  O  O24  1  0.84625000  0.29091100  0.26320200  1
  O  O25  1  0.84625200  0.79091100  0.76319600  1
  O  O26  1  0.97859400  0.65687500  0.10005700  1
  O  O27  1  0.97859800  0.15687400  0.60005100  1
