# generated using pymatgen
data_LiMn2(BO3)2
_symmetry_space_group_name_H-M   'P 1'
_cell_length_a   5.79139900
_cell_length_b   9.79512734
_cell_length_c   9.80610698
_cell_angle_alpha   65.28729442
_cell_angle_beta   80.13553271
_cell_angle_gamma   81.00673069
_symmetry_Int_Tables_number   1
_chemical_formula_structural   LiMn2(BO3)2
_chemical_formula_sum   'Li4 Mn8 B8 O24'
_cell_volume   495.62437204
_cell_formula_units_Z   4
loop_
 _symmetry_equiv_pos_site_id
 _symmetry_equiv_pos_as_xyz
  1  'x, y, z'
loop_
 _atom_site_type_symbol
 _atom_site_label
 _atom_site_symmetry_multiplicity
 _atom_site_fract_x
 _atom_site_fract_y
 _atom_site_fract_z
 _atom_site_occupancy
  Li  Li0  1  0.93798200  0.19768300  0.53737200  1
  Li  Li1  1  0.55996100  0.80526200  0.97470400  1
  Li  Li2  1  0.06074300  0.29909900  0.96902300  1
  Li  Li3  1  0.05798400  0.80597500  0.46848400  1
  Mn  Mn4  1  0.82707300  0.61329200  0.80995200  1
  Mn  Mn5  1  0.65696400  0.39386400  0.69215500  1
  Mn  Mn6  1  0.67063700  0.88145000  0.20060100  1
  Mn  Mn7  1  0.81739500  0.12386900  0.30711700  1
  Mn  Mn8  1  0.17936900  0.87212100  0.70593200  1
  Mn  Mn9  1  0.33661200  0.12003000  0.79936300  1
  Mn  Mn10  1  0.33966400  0.59999000  0.31841900  1
  Mn  Mn11  1  0.17897800  0.38685400  0.19104100  1
  B  B12  1  0.66978100  0.95162800  0.63557800  1
  B  B13  1  0.83619800  0.04524800  0.85978700  1
  B  B14  1  0.84514900  0.53531100  0.36923700  1
  B  B15  1  0.66711100  0.46239100  0.12677000  1
  B  B16  1  0.33282900  0.53843300  0.86614100  1
  B  B17  1  0.15585700  0.46283200  0.63564100  1
  B  B18  1  0.16428200  0.95752800  0.13255300  1
  B  B19  1  0.32489100  0.04681200  0.37071900  1
  O  O20  1  0.81589300  0.91282000  0.97954900  1
  O  O21  1  0.96962100  0.44004500  0.75365500  1
  O  O22  1  0.98019100  0.94211400  0.25251900  1
  O  O23  1  0.83993800  0.83280800  0.64579200  1
  O  O24  1  0.83953500  0.40214500  0.49059600  1
  O  O25  1  0.48757200  0.93325200  0.75609700  1
  O  O26  1  0.84037300  0.34295900  0.13744300  1
  O  O27  1  0.64990100  0.15934300  0.82142600  1
  O  O28  1  0.65122500  0.64482600  0.33711400  1
  O  O29  1  0.53670000  0.57646100  0.76220100  1
  O  O30  1  0.68687100  0.09065400  0.51803300  1
  O  O31  1  0.67323800  0.60077100  0.00783000  1
  O  O32  1  0.31820100  0.40100300  0.98020900  1
  O  O33  1  0.30559400  0.91111200  0.48641800  1
  O  O34  1  0.48475400  0.44242900  0.24383600  1
  O  O35  1  0.33273900  0.34626200  0.65729700  1
  O  O36  1  0.34013200  0.83859600  0.15113800  1
  O  O37  1  0.13955000  0.64792400  0.83589200  1
  O  O38  1  0.52937200  0.07598300  0.26601300  1
  O  O39  1  0.16632500  0.59823000  0.51235600  1
  O  O40  1  0.13183500  0.16136800  0.34491700  1
  O  O41  1  0.04144200  0.07434200  0.74969400  1
  O  O42  1  0.04883800  0.56769900  0.26376800  1
  O  O43  1  0.16839500  0.09118300  0.00688100  1
