# generated using pymatgen
data_LiFePH2O5
_symmetry_space_group_name_H-M   'P 1'
_cell_length_a   5.08611700
_cell_length_b   8.21505700
_cell_length_c   11.02135800
_cell_angle_alpha   90.00000000
_cell_angle_beta   90.00000000
_cell_angle_gamma   90.00000000
_symmetry_Int_Tables_number   1
_chemical_formula_structural   LiFePH2O5
_chemical_formula_sum   'Li4 Fe4 P4 H8 O20'
_cell_volume   460.50254748
_cell_formula_units_Z   4
loop_
 _symmetry_equiv_pos_site_id
 _symmetry_equiv_pos_as_xyz
  1  'x, y, z'
loop_
 _atom_site_type_symbol
 _atom_site_label
 _atom_site_symmetry_multiplicity
 _atom_site_fract_x
 _atom_site_fract_y
 _atom_site_fract_z
 _atom_site_occupancy
  Li  Li0  1  0.26003200  0.67729100  0.18475800  1
  Li  Li1  1  0.76003200  0.17729100  0.31524200  1
  Li  Li2  1  0.26003200  0.82270900  0.68475800  1
  Li  Li3  1  0.76003200  0.32270900  0.81524200  1
  Fe  Fe4  1  0.75432100  0.86886700  0.12014600  1
  Fe  Fe5  1  0.25432100  0.36886700  0.37985400  1
  Fe  Fe6  1  0.75432100  0.63113300  0.62014600  1
  Fe  Fe7  1  0.25432100  0.13113300  0.87985400  1
  P  P8  1  0.25708700  0.07910900  0.17318100  1
  P  P9  1  0.75708700  0.57910900  0.32681900  1
  P  P10  1  0.25708700  0.42089100  0.67318100  1
  P  P11  1  0.75708700  0.92089100  0.82681900  1
  H  H12  1  0.59077300  0.45406200  0.01667800  1
  H  H13  1  0.82361100  0.32969000  0.04345400  1
  H  H14  1  0.32361100  0.82969000  0.45654600  1
  H  H15  1  0.09077300  0.95406200  0.48332200  1
  H  H16  1  0.59077300  0.04593800  0.51667800  1
  H  H17  1  0.82361100  0.17031000  0.54345400  1
  H  H18  1  0.32361100  0.67031000  0.95654600  1
  H  H19  1  0.09077300  0.54593800  0.98332200  1
  O  O20  1  0.25789100  0.58947300  0.01460500  1
  O  O21  1  0.18952300  0.17255500  0.05509900  1
  O  O22  1  0.14063100  0.90353100  0.16745500  1
  O  O23  1  0.55985500  0.06411500  0.19179500  1
  O  O24  1  0.63670900  0.67269500  0.21757500  1
  O  O25  1  0.13670900  0.17269500  0.28242500  1
  O  O26  1  0.05985500  0.56411500  0.30820500  1
  O  O27  1  0.64063100  0.40353100  0.33254500  1
  O  O28  1  0.68952300  0.67255500  0.44490100  1
  O  O29  1  0.75789100  0.08947300  0.48539500  1
  O  O30  1  0.25789100  0.91052700  0.51460500  1
  O  O31  1  0.18952300  0.32744500  0.55509900  1
  O  O32  1  0.14063100  0.59646900  0.66745500  1
  O  O33  1  0.55985500  0.43588500  0.69179500  1
  O  O34  1  0.63670900  0.82730500  0.71757500  1
  O  O35  1  0.13670900  0.32730500  0.78242500  1
  O  O36  1  0.05985500  0.93588500  0.80820500  1
  O  O37  1  0.64063100  0.09646900  0.83254500  1
  O  O38  1  0.68952300  0.82744500  0.94490100  1
  O  O39  1  0.75789100  0.41052700  0.98539500  1
