# generated using pymatgen
data_LiNi(PO3)4
_symmetry_space_group_name_H-M   'P 1'
_cell_length_a   7.47446264
_cell_length_b   7.47446264
_cell_length_c   18.24461700
_cell_angle_alpha   90.00000000
_cell_angle_beta   90.00000000
_cell_angle_gamma   100.64373442
_symmetry_Int_Tables_number   1
_chemical_formula_structural   LiNi(PO3)4
_chemical_formula_sum   'Li4 Ni4 P16 O48'
_cell_volume   1001.74569735
_cell_formula_units_Z   4
loop_
 _symmetry_equiv_pos_site_id
 _symmetry_equiv_pos_as_xyz
  1  'x, y, z'
loop_
 _atom_site_type_symbol
 _atom_site_label
 _atom_site_symmetry_multiplicity
 _atom_site_fract_x
 _atom_site_fract_y
 _atom_site_fract_z
 _atom_site_occupancy
  Li  Li0  1  0.20487100  0.11124800  0.64422700  1
  Li  Li1  1  0.88875200  0.79512900  0.85577300  1
  Li  Li2  1  0.79512900  0.88875200  0.14422700  1
  Li  Li3  1  0.11124800  0.20487100  0.35577300  1
  Ni  Ni4  1  0.57228900  0.96755900  0.88918600  1
  Ni  Ni5  1  0.03244100  0.42771100  0.61081400  1
  Ni  Ni6  1  0.42771100  0.03244100  0.38918600  1
  Ni  Ni7  1  0.96755900  0.57228900  0.11081400  1
  P  P8  1  0.04304800  0.76346400  0.35057600  1
  P  P9  1  0.23653600  0.95695200  0.14942400  1
  P  P10  1  0.29346500  0.77740500  0.00811200  1
  P  P11  1  0.22259500  0.70653500  0.49188800  1
  P  P12  1  0.37403600  0.62596400  0.75000000  1
  P  P13  1  0.24857400  0.34211800  0.18890900  1
  P  P14  1  0.65788200  0.75142600  0.31109100  1
  P  P15  1  0.35394700  0.35394700  0.50000000  1
  P  P16  1  0.64605300  0.64605300  0.00000000  1
  P  P17  1  0.34211800  0.24857400  0.81109100  1
  P  P18  1  0.75142600  0.65788200  0.68890900  1
  P  P19  1  0.62596400  0.37403600  0.25000000  1
  P  P20  1  0.77740500  0.29346500  0.99188800  1
  P  P21  1  0.70653500  0.22259500  0.50811200  1
  P  P22  1  0.76346400  0.04304800  0.64942400  1
  P  P23  1  0.95695200  0.23653600  0.85057600  1
  O  O24  1  0.04701400  0.84236400  0.14919700  1
  O  O25  1  0.15763600  0.95298600  0.35080300  1
  O  O26  1  0.34884100  0.94185200  0.21642000  1
  O  O27  1  0.05814800  0.65115900  0.28358000  1
  O  O28  1  0.32870700  0.89582700  0.48430000  1
  O  O29  1  0.10417300  0.67129300  0.01570000  1
  O  O30  1  0.08571600  0.65436400  0.42220900  1
  O  O31  1  0.34563600  0.91428400  0.07779100  1
  O  O32  1  0.11442700  0.66667500  0.56112100  1
  O  O33  1  0.33332500  0.88557300  0.93887900  1
  O  O34  1  0.41720400  0.80020600  0.79332400  1
  O  O35  1  0.19979400  0.58279600  0.70667600  1
  O  O36  1  0.50461200  0.80512000  0.35336000  1
  O  O37  1  0.19488000  0.49538800  0.14664000  1
  O  O38  1  0.35854800  0.56369100  0.48127800  1
  O  O39  1  0.43630900  0.64145200  0.01872200  1
  O  O40  1  0.78591300  0.83599400  0.63503300  1
  O  O41  1  0.16400600  0.21408700  0.86496700  1
  O  O42  1  0.53160300  0.61303000  0.69117900  1
  O  O43  1  0.38697000  0.46839700  0.80882100  1
  O  O44  1  0.69661000  0.75463000  0.93101900  1
  O  O45  1  0.24537000  0.30339000  0.56898100  1
  O  O46  1  0.16917400  0.29307900  0.26262000  1
  O  O47  1  0.70692100  0.83082600  0.23738000  1
  O  O48  1  0.29307900  0.16917400  0.73738000  1
  O  O49  1  0.83082600  0.70692100  0.76262000  1
  O  O50  1  0.30339000  0.24537000  0.43101900  1
  O  O51  1  0.75463000  0.69661000  0.06898100  1
  O  O52  1  0.61303000  0.53160300  0.30882100  1
  O  O53  1  0.46839700  0.38697000  0.19117900  1
  O  O54  1  0.21408700  0.16400600  0.13503300  1
  O  O55  1  0.83599400  0.78591300  0.36496700  1
  O  O56  1  0.64145200  0.43630900  0.98127800  1
  O  O57  1  0.56369100  0.35854800  0.51872200  1
  O  O58  1  0.80512000  0.50461200  0.64664000  1
  O  O59  1  0.49538800  0.19488000  0.85336000  1
  O  O60  1  0.80020600  0.41720400  0.20667600  1
  O  O61  1  0.58279600  0.19979400  0.29332400  1
  O  O62  1  0.66667500  0.11442700  0.43887900  1
  O  O63  1  0.88557300  0.33332500  0.06112100  1
  O  O64  1  0.65436400  0.08571600  0.57779100  1
  O  O65  1  0.91428400  0.34563600  0.92220900  1
  O  O66  1  0.89582700  0.32870700  0.51570000  1
  O  O67  1  0.67129300  0.10417300  0.98430000  1
  O  O68  1  0.65115900  0.05814800  0.71642000  1
  O  O69  1  0.94185200  0.34884100  0.78358000  1
  O  O70  1  0.95298600  0.15763600  0.64919700  1
  O  O71  1  0.84236400  0.04701400  0.85080300  1
