# generated using pymatgen
data_Li3Mn(PO4)2
_symmetry_space_group_name_H-M   'P 1'
_cell_length_a   7.25628000
_cell_length_b   8.39271257
_cell_length_c   8.57678018
_cell_angle_alpha   118.91104352
_cell_angle_beta   95.47161249
_cell_angle_gamma   91.89678359
_symmetry_Int_Tables_number   1
_chemical_formula_structural   Li3Mn(PO4)2
_chemical_formula_sum   'Li9 Mn3 P6 O24'
_cell_volume   453.26110698
_cell_formula_units_Z   3
loop_
 _symmetry_equiv_pos_site_id
 _symmetry_equiv_pos_as_xyz
  1  'x, y, z'
loop_
 _atom_site_type_symbol
 _atom_site_label
 _atom_site_symmetry_multiplicity
 _atom_site_fract_x
 _atom_site_fract_y
 _atom_site_fract_z
 _atom_site_occupancy
  Li  Li0  1  0.29745100  0.69500700  0.03317200  1
  Li  Li1  1  0.31951000  0.35463700  0.32016800  1
  Li  Li2  1  0.50000000  0.00000000  0.00000000  1
  Li  Li3  1  0.51836800  0.32431800  0.67593400  1
  Li  Li4  1  0.64487800  0.03591600  0.33877200  1
  Li  Li5  1  0.35512200  0.96408400  0.66122800  1
  Li  Li6  1  0.48163200  0.67568200  0.32406600  1
  Li  Li7  1  0.68049000  0.64536300  0.67983200  1
  Li  Li8  1  0.70254900  0.30499300  0.96682800  1
  Mn  Mn9  1  0.00000000  0.00000000  0.00000000  1
  Mn  Mn10  1  0.95327100  0.33256300  0.65466900  1
  Mn  Mn11  1  0.04672900  0.66743700  0.34533100  1
  P  P12  1  0.26309500  0.64077700  0.68356200  1
  P  P13  1  0.21972000  0.03088500  0.34902100  1
  P  P14  1  0.24917700  0.30771100  0.96086300  1
  P  P15  1  0.75082300  0.69228900  0.03913700  1
  P  P16  1  0.78028000  0.96911500  0.65097900  1
  P  P17  1  0.73690500  0.35922300  0.31643800  1
  O  O18  1  0.80853200  0.79909300  0.93799900  1
  O  O19  1  0.44052200  0.55202900  0.69653800  1
  O  O20  1  0.10331600  0.56628500  0.74777700  1
  O  O21  1  0.72595600  0.48908500  0.89611500  1
  O  O22  1  0.78065600  0.40922000  0.51930000  1
  O  O23  1  0.71212800  0.15077800  0.19393900  1
  O  O24  1  0.09013600  0.26756400  0.81099600  1
  O  O25  1  0.06016300  0.14728200  0.42230000  1
  O  O26  1  0.18247000  0.93076300  0.13691400  1
  O  O27  1  0.40672500  0.14908100  0.41129100  1
  O  O28  1  0.42536000  0.22962400  0.87045300  1
  O  O29  1  0.75587400  0.12516100  0.59939100  1
  O  O30  1  0.24412600  0.87483900  0.40060900  1
  O  O31  1  0.57464000  0.77037600  0.12954700  1
  O  O32  1  0.59327500  0.85091900  0.58870900  1
  O  O33  1  0.81753000  0.06923700  0.86308600  1
  O  O34  1  0.93983700  0.85271800  0.57770000  1
  O  O35  1  0.90986400  0.73243600  0.18900400  1
  O  O36  1  0.28787200  0.84922200  0.80606100  1
  O  O37  1  0.21934400  0.59078000  0.48070000  1
  O  O38  1  0.27404400  0.51091500  0.10388500  1
  O  O39  1  0.89668400  0.43371500  0.25222300  1
  O  O40  1  0.55947800  0.44797100  0.30346200  1
  O  O41  1  0.19146800  0.20090700  0.06200100  1
