# generated using pymatgen
data_LiNi(PO3)4
_symmetry_space_group_name_H-M   'P 1'
_cell_length_a   13.15096400
_cell_length_b   7.60728300
_cell_length_c   11.29212298
_cell_angle_alpha   57.44288421
_cell_angle_beta   90.00000000
_cell_angle_gamma   90.00000000
_symmetry_Int_Tables_number   1
_chemical_formula_structural   LiNi(PO3)4
_chemical_formula_sum   'Li4 Ni4 P16 O48'
_cell_volume   952.17295608
_cell_formula_units_Z   4
loop_
 _symmetry_equiv_pos_site_id
 _symmetry_equiv_pos_as_xyz
  1  'x, y, z'
loop_
 _atom_site_type_symbol
 _atom_site_label
 _atom_site_symmetry_multiplicity
 _atom_site_fract_x
 _atom_site_fract_y
 _atom_site_fract_z
 _atom_site_occupancy
  Li  Li0  1  0.20878400  0.69645200  0.91351400  1
  Li  Li1  1  0.70878400  0.30354800  0.58648600  1
  Li  Li2  1  0.29121600  0.69645200  0.41351400  1
  Li  Li3  1  0.79121600  0.30354800  0.08648600  1
  Ni  Ni4  1  0.29579700  0.10286400  0.49812400  1
  Ni  Ni5  1  0.79579700  0.89713600  0.00187600  1
  Ni  Ni6  1  0.20420300  0.10286400  0.99812400  1
  Ni  Ni7  1  0.70420300  0.89713600  0.50187600  1
  P  P8  1  0.88763700  0.64498100  0.76408300  1
  P  P9  1  0.36493500  0.17718900  0.21149300  1
  P  P10  1  0.58494800  0.06934600  0.21997400  1
  P  P11  1  0.60144700  0.48843200  0.73633600  1
  P  P12  1  0.10144700  0.51156800  0.76366400  1
  P  P13  1  0.08494800  0.93065400  0.28002600  1
  P  P14  1  0.86493500  0.82281100  0.28850700  1
  P  P15  1  0.38763700  0.35501900  0.73591700  1
  P  P16  1  0.61236300  0.64498100  0.26408300  1
  P  P17  1  0.13506500  0.17718900  0.71149300  1
  P  P18  1  0.91505200  0.06934600  0.71997400  1
  P  P19  1  0.89855300  0.48843200  0.23633600  1
  P  P20  1  0.39855300  0.51156800  0.26366400  1
  P  P21  1  0.41505200  0.93065400  0.78002600  1
  P  P22  1  0.63506500  0.82281100  0.78850700  1
  P  P23  1  0.11236300  0.35501900  0.23591700  1
  O  O24  1  0.63373900  0.58354100  0.82727500  1
  O  O25  1  0.60710300  0.08396100  0.34641900  1
  O  O26  1  0.06403100  0.17099100  0.22397200  1
  O  O27  1  0.16477100  0.69676300  0.73170000  1
  O  O28  1  0.81460400  0.73472700  0.64369200  1
  O  O29  1  0.35847500  0.02075900  0.36837800  1
  O  O30  1  0.85420700  0.46953900  0.90448500  1
  O  O31  1  0.60442200  0.65778300  0.57995500  1
  O  O32  1  0.98621200  0.57418700  0.71302900  1
  O  O33  1  0.47494900  0.16464500  0.15483100  1
  O  O34  1  0.28442000  0.16826400  0.12216600  1
  O  O35  1  0.15961900  0.82570600  0.39802400  1
  O  O36  1  0.65961900  0.17429400  0.10197600  1
  O  O37  1  0.48621200  0.42581300  0.78697100  1
  O  O38  1  0.78442000  0.83173600  0.37783400  1
  O  O39  1  0.10442200  0.34221700  0.92004500  1
  O  O40  1  0.97494900  0.83535500  0.34516900  1
  O  O41  1  0.35420700  0.53046100  0.59551500  1
  O  O42  1  0.85847500  0.97924100  0.13162200  1
  O  O43  1  0.31460400  0.26527300  0.85630800  1
  O  O44  1  0.66477100  0.30323700  0.76830000  1
  O  O45  1  0.56403100  0.82900900  0.27602800  1
  O  O46  1  0.13373900  0.41645900  0.67272500  1
  O  O47  1  0.10710300  0.91603900  0.15358100  1
  O  O48  1  0.89289700  0.08396100  0.84641900  1
  O  O49  1  0.86626100  0.58354100  0.32727500  1
  O  O50  1  0.43596900  0.17099100  0.72397200  1
  O  O51  1  0.33522900  0.69676300  0.23170000  1
  O  O52  1  0.68539600  0.73472700  0.14369200  1
  O  O53  1  0.14152500  0.02075900  0.86837800  1
  O  O54  1  0.64579300  0.46953900  0.40448500  1
  O  O55  1  0.02505100  0.16464500  0.65483100  1
  O  O56  1  0.89557800  0.65778300  0.07995500  1
  O  O57  1  0.21558000  0.16826400  0.62216600  1
  O  O58  1  0.51378800  0.57418700  0.21302900  1
  O  O59  1  0.34038100  0.82570600  0.89802400  1
  O  O60  1  0.84038100  0.17429400  0.60197600  1
  O  O61  1  0.71558000  0.83173600  0.87783400  1
  O  O62  1  0.52505100  0.83535500  0.84516900  1
  O  O63  1  0.01378800  0.42581300  0.28697100  1
  O  O64  1  0.39557800  0.34221700  0.42004500  1
  O  O65  1  0.14579300  0.53046100  0.09551500  1
  O  O66  1  0.64152500  0.97924100  0.63162200  1
  O  O67  1  0.18539600  0.26527300  0.35630800  1
  O  O68  1  0.83522900  0.30323700  0.26830000  1
  O  O69  1  0.93596900  0.82900900  0.77602800  1
  O  O70  1  0.39289700  0.91603900  0.65358100  1
  O  O71  1  0.36626100  0.41645900  0.17272500  1
