# generated using pymatgen
data_Li2VFe(PO4)2
_symmetry_space_group_name_H-M   'P 1'
_cell_length_a   4.76315781
_cell_length_b   10.48156369
_cell_length_c   6.09033800
_cell_angle_alpha   90.00190271
_cell_angle_beta   89.99663211
_cell_angle_gamma   89.83842315
_symmetry_Int_Tables_number   1
_chemical_formula_structural   Li2VFe(PO4)2
_chemical_formula_sum   'Li4 V2 Fe2 P4 O16'
_cell_volume   304.06099751
_cell_formula_units_Z   2
loop_
 _symmetry_equiv_pos_site_id
 _symmetry_equiv_pos_as_xyz
  1  'x, y, z'
loop_
 _atom_site_type_symbol
 _atom_site_label
 _atom_site_symmetry_multiplicity
 _atom_site_fract_x
 _atom_site_fract_y
 _atom_site_fract_z
 _atom_site_occupancy
  Li  Li0  1  0.00001000  0.99996700  0.99995700  1
  Li  Li1  1  0.00000600  0.99996300  0.50004600  1
  Li  Li2  1  0.50000700  0.50002500  0.00007700  1
  Li  Li3  1  0.50001700  0.50001800  0.49993000  1
  V  V4  1  0.51555100  0.77636900  0.24999300  1
  V  V5  1  0.48457400  0.22359800  0.75000000  1
  Fe  Fe6  1  0.97417000  0.27845200  0.24997500  1
  Fe  Fe7  1  0.02566800  0.72151900  0.75001000  1
  P  P8  1  0.41051400  0.09269700  0.25000200  1
  P  P9  1  0.58941300  0.90729500  0.74998800  1
  P  P10  1  0.91919900  0.40771700  0.74999000  1
  P  P11  1  0.08083000  0.59230100  0.25002000  1
  O  O12  1  0.70954800  0.04510700  0.75002800  1
  O  O13  1  0.29026300  0.95484400  0.24999100  1
  O  O14  1  0.73311000  0.09744600  0.24999300  1
  O  O15  1  0.26685000  0.90243000  0.75001500  1
  O  O16  1  0.24196300  0.40540000  0.74999800  1
  O  O17  1  0.75808800  0.59468100  0.25001400  1
  O  O18  1  0.20630000  0.45554100  0.25000700  1
  O  O19  1  0.79354600  0.54450700  0.74999400  1
  O  O20  1  0.27436600  0.16208400  0.04711400  1
  O  O21  1  0.27435700  0.16208100  0.45290500  1
  O  O22  1  0.72574100  0.83795800  0.54706200  1
  O  O23  1  0.72575600  0.83791700  0.95285600  1
  O  O24  1  0.78662900  0.33661900  0.54683200  1
  O  O25  1  0.78660100  0.33662300  0.95314700  1
  O  O26  1  0.21347000  0.66342500  0.04686400  1
  O  O27  1  0.21345200  0.66341400  0.45319200  1
