# generated using pymatgen
data_Li4V3P8O29
_symmetry_space_group_name_H-M   'P 1'
_cell_length_a   9.75663700
_cell_length_b   9.76780092
_cell_length_c   14.15608547
_cell_angle_alpha   89.89405141
_cell_angle_beta   90.41992068
_cell_angle_gamma   119.81239311
_symmetry_Int_Tables_number   1
_chemical_formula_structural   Li4V3P8O29
_chemical_formula_sum   'Li8 V6 P16 O58'
_cell_volume   1170.51254869
_cell_formula_units_Z   2
loop_
 _symmetry_equiv_pos_site_id
 _symmetry_equiv_pos_as_xyz
  1  'x, y, z'
loop_
 _atom_site_type_symbol
 _atom_site_label
 _atom_site_symmetry_multiplicity
 _atom_site_fract_x
 _atom_site_fract_y
 _atom_site_fract_z
 _atom_site_occupancy
  Li  Li0  1  0.09660400  0.33288300  0.43834400  1
  Li  Li1  1  0.66785400  0.76422300  0.44103100  1
  Li  Li2  1  0.69109900  0.91814300  0.94016200  1
  Li  Li3  1  0.09202600  0.77269600  0.94199400  1
  Li  Li4  1  0.23276100  0.90370400  0.43892900  1
  Li  Li5  1  0.31834300  0.09585500  0.05959600  1
  Li  Li6  1  0.77508000  0.68636600  0.06001100  1
  Li  Li7  1  0.99165100  0.99448800  0.49773100  1
  V  V8  1  0.56885200  0.00443600  0.74561700  1
  V  V9  1  0.43407300  0.99890300  0.25120200  1
  V  V10  1  0.99990700  0.43190900  0.24939400  1
  V  V11  1  0.99619200  0.55885300  0.74773300  1
  V  V12  1  0.43157800  0.43210000  0.75107700  1
  V  V13  1  0.56064900  0.56160600  0.25265300  1
  P  P14  1  0.22649100  0.31429000  0.15668100  1
  P  P15  1  0.08527900  0.30858700  0.65808700  1
  P  P16  1  0.68678600  0.77262200  0.65799600  1
  P  P17  1  0.33723200  0.67233400  0.86837600  1
  P  P18  1  0.33437400  0.66578700  0.37097800  1
  P  P19  1  0.67826900  0.90896100  0.15724700  1
  P  P20  1  0.77707600  0.08309500  0.33934900  1
  P  P21  1  0.08705300  0.76691100  0.15700800  1
  P  P22  1  0.91557600  0.22562900  0.84249600  1
  P  P23  1  0.22227400  0.90940600  0.65878200  1
  P  P24  1  0.31810300  0.08911600  0.83976900  1
  P  P25  1  0.66355800  0.33434100  0.63139900  1
  P  P26  1  0.66430700  0.33428800  0.13277300  1
  P  P27  1  0.30502800  0.22224700  0.34150500  1
  P  P28  1  0.91660900  0.69281100  0.33913800  1
  P  P29  1  0.77132600  0.68113900  0.84077700  1
  O  O30  1  0.20847200  0.21585200  0.42448000  1
  O  O31  1  0.25710500  0.34161800  0.67083000  1
  O  O32  1  0.00332600  0.23122100  0.92827500  1
  O  O33  1  0.08652900  0.34418100  0.16327600  1
  O  O34  1  0.38136000  0.47550900  0.17966700  1
  O  O35  1  0.34391000  0.52857200  0.82140100  1
  O  O36  1  0.53141300  0.61527200  0.67109200  1
  O  O37  1  0.76112200  0.76094700  0.92856400  1
  O  O38  1  0.66111800  0.74086000  0.16649500  1
  O  O39  1  0.19047200  0.50933900  0.33380800  1
  O  O40  1  0.08708000  0.46848300  0.67325000  1
  O  O41  1  0.49066100  0.67615700  0.32713000  1
  O  O42  1  0.34504100  0.67677500  0.97299000  1
  O  O43  1  0.35074400  0.66907500  0.47612400  1
  O  O44  1  0.48431000  0.82260900  0.82532600  1
  O  O45  1  0.10405700  0.62227800  0.17821400  1
  O  O46  1  0.18374300  0.66736500  0.82834400  1
  O  O47  1  0.65538400  0.91347600  0.66968000  1
  O  O48  1  0.79704300  0.01010100  0.24066600  1
  O  O49  1  0.79258000  0.98983100  0.41856300  1
  O  O50  1  0.74516800  0.97938100  0.06447000  1
  O  O51  1  0.51739900  0.89699000  0.17918300  1
  O  O52  1  0.32119900  0.80921500  0.33196700  1
  O  O53  1  0.74252900  0.08309500  0.83717200  1
  O  O54  1  0.38207400  0.91233700  0.67238500  1
  O  O55  1  0.08473900  0.73802300  0.67122700  1
  O  O56  1  0.99077100  0.19998700  0.74555000  1
  O  O57  1  0.01637500  0.23077900  0.56609100  1
  O  O58  1  0.00661800  0.80348900  0.41829500  1
  O  O59  1  0.91711900  0.25481000  0.33974700  1
  O  O60  1  0.61791200  0.08064200  0.33192100  1
  O  O61  1  0.25147600  0.91843300  0.16032500  1
  O  O62  1  0.66801400  0.18667600  0.67574600  1
  O  O63  1  0.47757600  0.09641900  0.82111200  1
  O  O64  1  0.24180400  0.00040500  0.92821300  1
  O  O65  1  0.20864700  0.97888400  0.56810800  1
  O  O66  1  0.20607300  0.00077400  0.74925500  1
  O  O67  1  0.33945700  0.08386000  0.34053200  1
  O  O68  1  0.80776800  0.33189100  0.17865000  1
  O  O69  1  0.90865400  0.38021900  0.82108800  1
  O  O70  1  0.51056500  0.18480200  0.16942400  1
  O  O71  1  0.66533700  0.35254400  0.02850900  1
  O  O72  1  0.66674200  0.33426200  0.52725800  1
  O  O73  1  0.51634500  0.33179000  0.67643300  1
  O  O74  1  0.92454600  0.53980400  0.33241300  1
  O  O75  1  0.81301200  0.48285300  0.67714900  1
  O  O76  1  0.34257300  0.25781100  0.83581600  1
  O  O77  1  0.20629400  0.20311600  0.24667800  1
  O  O78  1  0.24274200  0.23919500  0.07066200  1
  O  O79  1  0.46403300  0.38101000  0.32930000  1
  O  O80  1  0.66491500  0.48490300  0.17954600  1
  O  O81  1  0.61986700  0.52184000  0.82286500  1
  O  O82  1  0.91851800  0.65977600  0.84126400  1
  O  O83  1  0.00115600  0.75402500  0.06571500  1
  O  O84  1  0.98566700  0.78558300  0.24023700  1
  O  O85  1  0.74125900  0.65599100  0.33999900  1
  O  O86  1  0.77279000  0.78872400  0.56859400  1
  O  O87  1  0.79524800  0.79014400  0.74940500  1
