# generated using pymatgen
data_Li5Fe3F14
_symmetry_space_group_name_H-M   'P 1'
_cell_length_a   7.25860300
_cell_length_b   11.60402700
_cell_length_c   12.59121800
_cell_angle_alpha   90.00000000
_cell_angle_beta   90.00000000
_cell_angle_gamma   90.00000000
_symmetry_Int_Tables_number   1
_chemical_formula_structural   Li5Fe3F14
_chemical_formula_sum   'Li20 Fe12 F56'
_cell_volume   1060.54601815
_cell_formula_units_Z   4
loop_
 _symmetry_equiv_pos_site_id
 _symmetry_equiv_pos_as_xyz
  1  'x, y, z'
loop_
 _atom_site_type_symbol
 _atom_site_label
 _atom_site_symmetry_multiplicity
 _atom_site_fract_x
 _atom_site_fract_y
 _atom_site_fract_z
 _atom_site_occupancy
  Li  Li0  1  0.00012800  0.00983800  0.00686700  1
  Li  Li1  1  0.80742500  0.09783500  0.27809200  1
  Li  Li2  1  0.31986600  0.09881400  0.27513400  1
  Li  Li3  1  0.81494600  0.21794400  0.01102500  1
  Li  Li4  1  0.83607500  0.21242200  0.49459300  1
  Li  Li5  1  0.33607500  0.28757800  0.99459300  1
  Li  Li6  1  0.31494600  0.28205600  0.51102500  1
  Li  Li7  1  0.81986600  0.40118600  0.77513400  1
  Li  Li8  1  0.30742500  0.40216500  0.77809200  1
  Li  Li9  1  0.50012800  0.49016200  0.50686700  1
  Li  Li10  1  0.49987200  0.50983800  0.00686700  1
  Li  Li11  1  0.69257500  0.59783500  0.27809200  1
  Li  Li12  1  0.18013400  0.59881400  0.27513400  1
  Li  Li13  1  0.68505400  0.71794400  0.01102500  1
  Li  Li14  1  0.66392500  0.71242200  0.49459300  1
  Li  Li15  1  0.16392500  0.78757800  0.99459300  1
  Li  Li16  1  0.18505400  0.78205600  0.51102500  1
  Li  Li17  1  0.68013400  0.90118600  0.77513400  1
  Li  Li18  1  0.19257500  0.90216500  0.77809200  1
  Li  Li19  1  0.99987200  0.99016200  0.50686700  1
  Fe  Fe20  1  0.50302200  0.00121100  0.49501200  1
  Fe  Fe21  1  0.99858600  0.14867800  0.75131300  1
  Fe  Fe22  1  0.49562700  0.16818400  0.74573300  1
  Fe  Fe23  1  0.99562700  0.33181600  0.24573300  1
  Fe  Fe24  1  0.49858600  0.35132200  0.25131300  1
  Fe  Fe25  1  0.00302200  0.49878900  0.99501200  1
  Fe  Fe26  1  0.99697800  0.50121100  0.49501200  1
  Fe  Fe27  1  0.50141400  0.64867800  0.75131300  1
  Fe  Fe28  1  0.00437300  0.66818400  0.74573300  1
  Fe  Fe29  1  0.50437300  0.83181600  0.24573300  1
  Fe  Fe30  1  0.00141400  0.85132200  0.25131300  1
  Fe  Fe31  1  0.49697800  0.99878900  0.99501200  1
  F  F32  1  0.92259900  0.98664800  0.75486800  1
  F  F33  1  0.73916000  0.06545900  0.44134300  1
  F  F34  1  0.73004500  0.06504900  0.03928700  1
  F  F35  1  0.56740800  0.04385500  0.84475200  1
  F  F36  1  0.57728900  0.05789700  0.63776900  1
  F  F37  1  0.36366700  0.13676900  0.45526900  1
  F  F38  1  0.36222100  0.13410700  0.02978900  1
  F  F39  1  0.25470200  0.08635300  0.74650000  1
  F  F40  1  0.99609600  0.14034500  0.90641300  1
  F  F41  1  0.99412400  0.13461700  0.59465900  1
  F  F42  1  0.57901900  0.19113400  0.25123000  1
  F  F43  1  0.94081500  0.22572000  0.35618000  1
  F  F44  1  0.93098900  0.21874400  0.14502000  1
  F  F45  1  0.75232300  0.22871100  0.75042900  1
  F  F46  1  0.25232300  0.27128900  0.25042900  1
  F  F47  1  0.43098900  0.28125600  0.64502000  1
  F  F48  1  0.44081500  0.27428000  0.85618000  1
  F  F49  1  0.07901900  0.30886600  0.75123000  1
  F  F50  1  0.49412400  0.36538300  0.09465900  1
  F  F51  1  0.49609600  0.35965500  0.40641300  1
  F  F52  1  0.86222100  0.36589300  0.52978900  1
  F  F53  1  0.75470200  0.41364700  0.24650000  1
  F  F54  1  0.86366700  0.36323100  0.95526900  1
  F  F55  1  0.07728900  0.44210300  0.13776900  1
  F  F56  1  0.06740800  0.45614500  0.34475200  1
  F  F57  1  0.23004500  0.43495100  0.53928700  1
  F  F58  1  0.23916000  0.43454100  0.94134300  1
  F  F59  1  0.42259900  0.51335200  0.25486800  1
  F  F60  1  0.57740100  0.48664800  0.75486800  1
  F  F61  1  0.76084000  0.56545900  0.44134300  1
  F  F62  1  0.76995500  0.56504900  0.03928700  1
  F  F63  1  0.93259200  0.54385500  0.84475200  1
  F  F64  1  0.92271100  0.55789700  0.63776900  1
  F  F65  1  0.13633300  0.63676900  0.45526900  1
  F  F66  1  0.13777900  0.63410700  0.02978900  1
  F  F67  1  0.24529800  0.58635300  0.74650000  1
  F  F68  1  0.50390400  0.64034500  0.90641300  1
  F  F69  1  0.50587600  0.63461700  0.59465900  1
  F  F70  1  0.92098100  0.69113400  0.25123000  1
  F  F71  1  0.55918500  0.72572000  0.35618000  1
  F  F72  1  0.56901100  0.71874400  0.14502000  1
  F  F73  1  0.74767700  0.72871100  0.75042900  1
  F  F74  1  0.24767700  0.77128900  0.25042900  1
  F  F75  1  0.06901100  0.78125600  0.64502000  1
  F  F76  1  0.05918500  0.77428000  0.85618000  1
  F  F77  1  0.42098100  0.80886600  0.75123000  1
  F  F78  1  0.00587600  0.86538300  0.09465900  1
  F  F79  1  0.00390400  0.85965500  0.40641300  1
  F  F80  1  0.63777900  0.86589300  0.52978900  1
  F  F81  1  0.74529800  0.91364700  0.24650000  1
  F  F82  1  0.63633300  0.86323100  0.95526900  1
  F  F83  1  0.42271100  0.94210300  0.13776900  1
  F  F84  1  0.43259200  0.95614500  0.34475200  1
  F  F85  1  0.26995500  0.93495100  0.53928700  1
  F  F86  1  0.26084000  0.93454100  0.94134300  1
  F  F87  1  0.07740100  0.01335200  0.25486800  1
