# generated using pymatgen
data_LiMnPO4
_symmetry_space_group_name_H-M   'P 1'
_cell_length_a   5.97221000
_cell_length_b   7.81737400
_cell_length_c   13.67815300
_cell_angle_alpha   90.00000000
_cell_angle_beta   90.00000000
_cell_angle_gamma   90.00000000
_symmetry_Int_Tables_number   1
_chemical_formula_structural   LiMnPO4
_chemical_formula_sum   'Li8 Mn8 P8 O32'
_cell_volume   638.59191785
_cell_formula_units_Z   8
loop_
 _symmetry_equiv_pos_site_id
 _symmetry_equiv_pos_as_xyz
  1  'x, y, z'
loop_
 _atom_site_type_symbol
 _atom_site_label
 _atom_site_symmetry_multiplicity
 _atom_site_fract_x
 _atom_site_fract_y
 _atom_site_fract_z
 _atom_site_occupancy
  Li  Li0  1  0.15165900  0.19463400  0.22410500  1
  Li  Li1  1  0.65165900  0.19463400  0.27589500  1
  Li  Li2  1  0.65165900  0.30536600  0.77589500  1
  Li  Li3  1  0.15165900  0.30536600  0.72410500  1
  Li  Li4  1  0.34834100  0.69463400  0.22410500  1
  Li  Li5  1  0.84834100  0.69463400  0.27589500  1
  Li  Li6  1  0.34834100  0.80536600  0.72410500  1
  Li  Li7  1  0.84834100  0.80536600  0.77589500  1
  Mn  Mn8  1  0.39723500  0.17891600  0.54053600  1
  Mn  Mn9  1  0.89723500  0.17891600  0.95946400  1
  Mn  Mn10  1  0.39723500  0.32108400  0.04053600  1
  Mn  Mn11  1  0.89723500  0.32108400  0.45946400  1
  Mn  Mn12  1  0.10276500  0.67891600  0.54053600  1
  Mn  Mn13  1  0.60276500  0.67891600  0.95946400  1
  Mn  Mn14  1  0.10276500  0.82108400  0.04053600  1
  Mn  Mn15  1  0.60276500  0.82108400  0.45946400  1
  P  P16  1  0.90006000  0.05106100  0.63285800  1
  P  P17  1  0.40006000  0.05106100  0.86714200  1
  P  P18  1  0.90006000  0.44893900  0.13285800  1
  P  P19  1  0.40006000  0.44893900  0.36714200  1
  P  P20  1  0.59994000  0.55106100  0.63285800  1
  P  P21  1  0.09994000  0.55106100  0.86714200  1
  P  P22  1  0.59994000  0.94893900  0.13285800  1
  P  P23  1  0.09994000  0.94893900  0.36714200  1
  O  O24  1  0.80864800  0.97019700  0.06354600  1
  O  O25  1  0.30864800  0.97019700  0.43645400  1
  O  O26  1  0.33524700  0.11088900  0.76491000  1
  O  O27  1  0.83524700  0.11088900  0.73509000  1
  O  O28  1  0.47376400  0.12162500  0.14038200  1
  O  O29  1  0.97376400  0.12162500  0.35961800  1
  O  O30  1  0.05430800  0.19312300  0.58478900  1
  O  O31  1  0.55430800  0.19312300  0.91521100  1
  O  O32  1  0.05430800  0.30687700  0.08478900  1
  O  O33  1  0.55430800  0.30687700  0.41521100  1
  O  O34  1  0.47376400  0.37837500  0.64038200  1
  O  O35  1  0.97376400  0.37837500  0.85961800  1
  O  O36  1  0.83524700  0.38911100  0.23509000  1
  O  O37  1  0.33524700  0.38911100  0.26491000  1
  O  O38  1  0.80864800  0.52980300  0.56354600  1
  O  O39  1  0.30864800  0.52980300  0.93645400  1
  O  O40  1  0.19135200  0.47019700  0.43645400  1
  O  O41  1  0.69135200  0.47019700  0.06354600  1
  O  O42  1  0.66475300  0.61088900  0.73509000  1
  O  O43  1  0.16475300  0.61088900  0.76491000  1
  O  O44  1  0.02623600  0.62162500  0.14038200  1
  O  O45  1  0.52623600  0.62162500  0.35961800  1
  O  O46  1  0.44569200  0.69312300  0.58478900  1
  O  O47  1  0.94569200  0.69312300  0.91521100  1
  O  O48  1  0.44569200  0.80687700  0.08478900  1
  O  O49  1  0.94569200  0.80687700  0.41521100  1
  O  O50  1  0.02623600  0.87837500  0.64038200  1
  O  O51  1  0.52623600  0.87837500  0.85961800  1
  O  O52  1  0.66475300  0.88911100  0.23509000  1
  O  O53  1  0.16475300  0.88911100  0.26491000  1
  O  O54  1  0.69135200  0.02980300  0.56354600  1
  O  O55  1  0.19135200  0.02980300  0.93645400  1
