# generated using pymatgen
data_Li2VCrO4
_symmetry_space_group_name_H-M   'P 1'
_cell_length_a   5.16718300
_cell_length_b   6.01438833
_cell_length_c   7.88029918
_cell_angle_alpha   101.29690357
_cell_angle_beta   96.53977974
_cell_angle_gamma   106.63168596
_symmetry_Int_Tables_number   1
_chemical_formula_structural   Li2VCrO4
_chemical_formula_sum   'Li6 V3 Cr3 O12'
_cell_volume   226.31181807
_cell_formula_units_Z   3
loop_
 _symmetry_equiv_pos_site_id
 _symmetry_equiv_pos_as_xyz
  1  'x, y, z'
loop_
 _atom_site_type_symbol
 _atom_site_label
 _atom_site_symmetry_multiplicity
 _atom_site_fract_x
 _atom_site_fract_y
 _atom_site_fract_z
 _atom_site_occupancy
  Li  Li0  1  0.50154300  0.58218000  0.83498100  1
  Li  Li1  1  0.49845700  0.41782000  0.16501900  1
  Li  Li2  1  0.49855100  0.24515900  0.50219500  1
  Li  Li3  1  0.49851200  0.08325200  0.83309100  1
  Li  Li4  1  0.50148800  0.91674800  0.16690900  1
  Li  Li5  1  0.50144900  0.75484100  0.49780500  1
  V  V6  1  0.00000000  0.50000000  0.00000000  1
  V  V7  1  0.00062200  0.33498600  0.33325600  1
  V  V8  1  0.99937800  0.66501400  0.66674400  1
  Cr  Cr9  1  0.00132700  0.16342900  0.66713600  1
  Cr  Cr10  1  0.00000000  0.00000000  0.00000000  1
  Cr  Cr11  1  0.99867300  0.83657100  0.33286400  1
  O  O12  1  0.77480500  0.55022000  0.41789500  1
  O  O13  1  0.77482900  0.21552900  0.08440700  1
  O  O14  1  0.22519500  0.44978000  0.58210500  1
  O  O15  1  0.77309200  0.37219500  0.75386100  1
  O  O16  1  0.22855500  0.27765600  0.91336000  1
  O  O17  1  0.77394700  0.04660000  0.42144000  1
  O  O18  1  0.22422400  0.12094600  0.24843000  1
  O  O19  1  0.77144500  0.72234400  0.08664000  1
  O  O20  1  0.22517100  0.78447100  0.91559300  1
  O  O21  1  0.77577600  0.87905400  0.75157000  1
  O  O22  1  0.22605300  0.95340000  0.57856000  1
  O  O23  1  0.22690800  0.62780500  0.24613900  1
