# generated using pymatgen
data_LiVCrO4
_symmetry_space_group_name_H-M   'P 1'
_cell_length_a   5.88477076
_cell_length_b   5.90439440
_cell_length_c   5.88480672
_cell_angle_alpha   60.64451093
_cell_angle_beta   88.04408860
_cell_angle_gamma   118.19615658
_symmetry_Int_Tables_number   1
_chemical_formula_structural   LiVCrO4
_chemical_formula_sum   'Li2 V2 Cr2 O8'
_cell_volume   147.37043599
_cell_formula_units_Z   2
loop_
 _symmetry_equiv_pos_site_id
 _symmetry_equiv_pos_as_xyz
  1  'x, y, z'
loop_
 _atom_site_type_symbol
 _atom_site_label
 _atom_site_symmetry_multiplicity
 _atom_site_fract_x
 _atom_site_fract_y
 _atom_site_fract_z
 _atom_site_occupancy
  Li  Li0  1  0.49999900  0.00000000  0.00000000  1
  Li  Li1  1  0.49999900  0.50000000  0.50000000  1
  V  V2  1  0.00000000  0.99999900  0.50000100  1
  V  V3  1  0.00000000  0.50000300  0.99999800  1
  Cr  Cr4  1  0.99998800  0.99998900  0.00001000  1
  Cr  Cr5  1  0.50002000  0.50000700  0.99999700  1
  O  O6  1  0.76627600  0.97243100  0.75918100  1
  O  O7  1  0.76836700  0.52751800  0.20615700  1
  O  O8  1  0.23163300  0.47248300  0.79384200  1
  O  O9  1  0.23372200  0.02756900  0.24081800  1
  O  O10  1  0.23461700  0.47691000  0.24541700  1
  O  O11  1  0.22235100  0.97691900  0.75768100  1
  O  O12  1  0.77764500  0.02308000  0.24231700  1
  O  O13  1  0.76538300  0.52309200  0.75458200  1
