# generated using pymatgen
data_LiNi4(PO4)3
_symmetry_space_group_name_H-M   'P 1'
_cell_length_a   8.53756422
_cell_length_b   8.53756422
_cell_length_c   6.51220682
_cell_angle_alpha   73.83337659
_cell_angle_beta   73.83337659
_cell_angle_gamma   94.82964612
_symmetry_Int_Tables_number   1
_chemical_formula_structural   LiNi4(PO4)3
_chemical_formula_sum   'Li2 Ni8 P6 O24'
_cell_volume   431.09487101
_cell_formula_units_Z   2
loop_
 _symmetry_equiv_pos_site_id
 _symmetry_equiv_pos_as_xyz
  1  'x, y, z'
loop_
 _atom_site_type_symbol
 _atom_site_label
 _atom_site_symmetry_multiplicity
 _atom_site_fract_x
 _atom_site_fract_y
 _atom_site_fract_z
 _atom_site_occupancy
  Li  Li0  1  0.00057300  0.99942700  0.75000000  1
  Li  Li1  1  0.99942700  0.00057300  0.25000000  1
  Ni  Ni2  1  0.94657300  0.62892800  0.62296400  1
  Ni  Ni3  1  0.62892800  0.94657300  0.12296400  1
  Ni  Ni4  1  0.50497500  0.49502500  0.75000000  1
  Ni  Ni5  1  0.26253600  0.73746400  0.75000000  1
  Ni  Ni6  1  0.73746400  0.26253600  0.25000000  1
  Ni  Ni7  1  0.49502500  0.50497500  0.25000000  1
  Ni  Ni8  1  0.37107200  0.05342700  0.87703600  1
  Ni  Ni9  1  0.05342700  0.37107200  0.37703600  1
  P  P10  1  0.66221300  0.88314000  0.62074700  1
  P  P11  1  0.88314000  0.66221300  0.12074700  1
  P  P12  1  0.70942700  0.29057300  0.75000000  1
  P  P13  1  0.29057300  0.70942700  0.25000000  1
  P  P14  1  0.11686000  0.33778700  0.87925300  1
  P  P15  1  0.33778700  0.11686000  0.37925300  1
  O  O16  1  0.83880500  0.84292500  0.60056600  1
  O  O17  1  0.60088600  0.95959400  0.81105000  1
  O  O18  1  0.84292500  0.83880500  0.10056600  1
  O  O19  1  0.95959400  0.60088600  0.31105000  1
  O  O20  1  0.32484800  0.99291800  0.61221500  1
  O  O21  1  0.72806500  0.47752000  0.74270300  1
  O  O22  1  0.52433000  0.72990500  0.67140100  1
  O  O23  1  0.74236000  0.18771300  0.96363500  1
  O  O24  1  0.81228700  0.25764000  0.53636500  1
  O  O25  1  0.99291800  0.32484800  0.11221500  1
  O  O26  1  0.47752000  0.72806500  0.24270300  1
  O  O27  1  0.72990500  0.52433000  0.17140100  1
  O  O28  1  0.27009500  0.47567000  0.82859900  1
  O  O29  1  0.52248000  0.27193500  0.75729700  1
  O  O30  1  0.00708200  0.67515200  0.88778500  1
  O  O31  1  0.18771300  0.74236000  0.46363500  1
  O  O32  1  0.25764000  0.81228700  0.03636500  1
  O  O33  1  0.47567000  0.27009500  0.32859900  1
  O  O34  1  0.27193500  0.52248000  0.25729700  1
  O  O35  1  0.67515200  0.00708200  0.38778500  1
  O  O36  1  0.04040600  0.39911400  0.68895000  1
  O  O37  1  0.15707500  0.16119500  0.89943400  1
  O  O38  1  0.39911400  0.04040600  0.18895000  1
  O  O39  1  0.16119500  0.15707500  0.39943400  1
