# generated using pymatgen
data_Li5Cr4O8
_symmetry_space_group_name_H-M   'P 1'
_cell_length_a   6.06284016
_cell_length_b   6.06284016
_cell_length_c   9.96338700
_cell_angle_alpha   90.00000000
_cell_angle_beta   90.00000000
_cell_angle_gamma   121.39986085
_symmetry_Int_Tables_number   1
_chemical_formula_structural   Li5Cr4O8
_chemical_formula_sum   'Li10 Cr8 O16'
_cell_volume   312.60020065
_cell_formula_units_Z   2
loop_
 _symmetry_equiv_pos_site_id
 _symmetry_equiv_pos_as_xyz
  1  'x, y, z'
loop_
 _atom_site_type_symbol
 _atom_site_label
 _atom_site_symmetry_multiplicity
 _atom_site_fract_x
 _atom_site_fract_y
 _atom_site_fract_z
 _atom_site_occupancy
  Li  Li0  1  0.11466500  0.32440900  0.06284700  1
  Li  Li1  1  0.67559100  0.88533500  0.06284700  1
  Li  Li2  1  0.70516800  0.29483200  0.05029200  1
  Li  Li3  1  0.81628200  0.18371800  0.27692100  1
  Li  Li4  1  0.51098300  0.48901700  0.98675500  1
  Li  Li5  1  0.29483200  0.70516800  0.55029200  1
  Li  Li6  1  0.48901700  0.51098300  0.48675500  1
  Li  Li7  1  0.32440900  0.11466500  0.56284700  1
  Li  Li8  1  0.18371800  0.81628200  0.77692100  1
  Li  Li9  1  0.88533500  0.67559100  0.56284700  1
  Cr  Cr10  1  0.83806600  0.16193400  0.52641000  1
  Cr  Cr11  1  0.68400900  0.82087000  0.78583200  1
  Cr  Cr12  1  0.16193400  0.83806600  0.02641000  1
  Cr  Cr13  1  0.82087000  0.68400900  0.28583200  1
  Cr  Cr14  1  0.17913000  0.31599100  0.78583200  1
  Cr  Cr15  1  0.31707300  0.68292700  0.28585600  1
  Cr  Cr16  1  0.68292700  0.31707300  0.78585600  1
  Cr  Cr17  1  0.31599100  0.17913000  0.28583200  1
  O  O18  1  0.48239000  0.51761000  0.17545500  1
  O  O19  1  0.16812600  0.35657000  0.40192700  1
  O  O20  1  0.01230200  0.98769800  0.67429400  1
  O  O21  1  0.00601900  0.46837000  0.66776200  1
  O  O22  1  0.84469800  0.15530200  0.90003600  1
  O  O23  1  0.64343000  0.83187400  0.40192700  1
  O  O24  1  0.53163000  0.99398100  0.66776200  1
  O  O25  1  0.35625000  0.64375000  0.89872900  1
  O  O26  1  0.64375000  0.35625000  0.39872900  1
  O  O27  1  0.46837000  0.00601900  0.16776200  1
  O  O28  1  0.99398100  0.53163000  0.16776200  1
  O  O29  1  0.15530200  0.84469800  0.40003600  1
  O  O30  1  0.51761000  0.48239000  0.67545500  1
  O  O31  1  0.35657000  0.16812600  0.90192700  1
  O  O32  1  0.98769800  0.01230200  0.17429400  1
  O  O33  1  0.83187400  0.64343000  0.90192700  1
