# generated using pymatgen
data_Li4V2F9
_symmetry_space_group_name_H-M   'P 1'
_cell_length_a   5.17177875
_cell_length_b   5.17177875
_cell_length_c   13.93739100
_cell_angle_alpha   90.00000000
_cell_angle_beta   90.00000000
_cell_angle_gamma   120.00000963
_symmetry_Int_Tables_number   1
_chemical_formula_structural   Li4V2F9
_chemical_formula_sum   'Li8 V4 F18'
_cell_volume   322.84342699
_cell_formula_units_Z   2
loop_
 _symmetry_equiv_pos_site_id
 _symmetry_equiv_pos_as_xyz
  1  'x, y, z'
loop_
 _atom_site_type_symbol
 _atom_site_label
 _atom_site_symmetry_multiplicity
 _atom_site_fract_x
 _atom_site_fract_y
 _atom_site_fract_z
 _atom_site_occupancy
  Li  Li0  1  0.33333300  0.66666700  0.17835700  1
  Li  Li1  1  0.66666700  0.33333300  0.01893000  1
  Li  Li2  1  0.33333300  0.66666700  0.48107000  1
  Li  Li3  1  0.66666700  0.33333300  0.32164300  1
  Li  Li4  1  0.33333300  0.66666700  0.98107000  1
  Li  Li5  1  0.33333300  0.66666700  0.67835700  1
  Li  Li6  1  0.66666700  0.33333300  0.51893000  1
  Li  Li7  1  0.66666700  0.33333300  0.82164300  1
  V  V8  1  0.00000000  0.00000000  0.15174000  1
  V  V9  1  0.00000000  0.00000000  0.34826000  1
  V  V10  1  0.00000000  0.00000000  0.65174000  1
  V  V11  1  0.00000000  0.00000000  0.84826000  1
  F  F12  1  0.68898900  0.68898900  0.75000000  1
  F  F13  1  0.32803000  0.97650900  0.08463200  1
  F  F14  1  0.67197000  0.64847900  0.41536800  1
  F  F15  1  0.00000000  0.68898900  0.25000000  1
  F  F16  1  0.02349100  0.67197000  0.58463200  1
  F  F17  1  0.97650900  0.64847900  0.91536800  1
  F  F18  1  0.31101100  0.31101100  0.25000000  1
  F  F19  1  0.64847900  0.97650900  0.58463200  1
  F  F20  1  0.35152100  0.32803000  0.91536800  1
  F  F21  1  0.64847900  0.67197000  0.08463200  1
  F  F22  1  0.35152100  0.02349100  0.41536800  1
  F  F23  1  0.31101100  0.00000000  0.75000000  1
  F  F24  1  0.02349100  0.35152100  0.08463200  1
  F  F25  1  0.97650900  0.32803000  0.41536800  1
  F  F26  1  0.00000000  0.31101100  0.75000000  1
  F  F27  1  0.32803000  0.35152100  0.58463200  1
  F  F28  1  0.67197000  0.02349100  0.91536800  1
  F  F29  1  0.68898900  0.00000000  0.25000000  1
