# generated using pymatgen
data_Li5Mn6(BO3)6
_symmetry_space_group_name_H-M   'P 1'
_cell_length_a   10.42830135
_cell_length_b   10.42830135
_cell_length_c   8.28562301
_cell_angle_alpha   66.80119004
_cell_angle_beta   66.80119004
_cell_angle_gamma   75.36807128
_symmetry_Int_Tables_number   1
_chemical_formula_structural   Li5Mn6(BO3)6
_chemical_formula_sum   'Li10 Mn12 B12 O36'
_cell_volume   756.15587793
_cell_formula_units_Z   2
loop_
 _symmetry_equiv_pos_site_id
 _symmetry_equiv_pos_as_xyz
  1  'x, y, z'
loop_
 _atom_site_type_symbol
 _atom_site_label
 _atom_site_symmetry_multiplicity
 _atom_site_fract_x
 _atom_site_fract_y
 _atom_site_fract_z
 _atom_site_occupancy
  Li  Li0  1  0.26731600  0.26731600  0.01067400  1
  Li  Li1  1  0.01488300  0.51797600  0.01538900  1
  Li  Li2  1  0.47691000  0.47691000  0.28003000  1
  Li  Li3  1  0.22722500  0.72307900  0.28137100  1
  Li  Li4  1  0.51797600  0.01488300  0.01538900  1
  Li  Li5  1  0.76289700  0.76289700  0.03092400  1
  Li  Li6  1  0.72307900  0.22722500  0.28137100  1
  Li  Li7  1  0.13369500  0.13369500  0.69481400  1
  Li  Li8  1  0.88687500  0.38068100  0.70213300  1
  Li  Li9  1  0.38068100  0.88687500  0.70213300  1
  Mn  Mn10  1  0.18718200  0.43787700  0.63179000  1
  Mn  Mn11  1  0.23845800  0.99374200  0.36249700  1
  Mn  Mn12  1  0.74188400  0.49151700  0.38807000  1
  Mn  Mn13  1  0.49151700  0.74188400  0.38807000  1
  Mn  Mn14  1  0.57355500  0.32673700  0.98275700  1
  Mn  Mn15  1  0.32673700  0.57355500  0.98275700  1
  Mn  Mn16  1  0.06965100  0.82016100  0.99644600  1
  Mn  Mn17  1  0.93132400  0.68560200  0.64002800  1
  Mn  Mn18  1  0.68560200  0.93132400  0.64002800  1
  Mn  Mn19  1  0.43787700  0.18718200  0.63179000  1
  Mn  Mn20  1  0.99374200  0.23845800  0.36249700  1
  Mn  Mn21  1  0.82016100  0.06965100  0.99644600  1
  B  B22  1  0.04123900  0.54159400  0.33091800  1
  B  B23  1  0.29252500  0.29252500  0.32641500  1
  B  B24  1  0.75529800  0.49517000  0.00994900  1
  B  B25  1  0.49517000  0.75529800  0.00994900  1
  B  B26  1  0.78812000  0.78812000  0.33652200  1
  B  B27  1  0.54159400  0.04123900  0.33091800  1
  B  B28  1  0.45609700  0.45609700  0.66747500  1
  B  B29  1  0.20826400  0.70826900  0.66655200  1
  B  B30  1  0.99990700  0.25733800  0.98979600  1
  B  B31  1  0.25733800  0.99990700  0.98979600  1
  B  B32  1  0.70826900  0.20826400  0.66655200  1
  B  B33  1  0.95647500  0.95647500  0.67629400  1
  O  O34  1  0.05995400  0.31070100  0.07145400  1
  O  O35  1  0.34659900  0.34659900  0.13399300  1
  O  O36  1  0.09649200  0.59521900  0.13842800  1
  O  O37  1  0.17617100  0.89163400  0.09909800  1
  O  O38  1  0.65021600  0.40572400  0.11753800  1
  O  O39  1  0.40572400  0.65021600  0.11753800  1
  O  O40  1  0.31070100  0.05995400  0.07145400  1
  O  O41  1  0.80457700  0.55343400  0.09769100  1
  O  O42  1  0.55343400  0.80457700  0.09769100  1
  O  O43  1  0.33586400  0.33586400  0.43397500  1
  O  O44  1  0.08339300  0.58438000  0.43971800  1
  O  O45  1  0.04878600  0.28891000  0.79656600  1
  O  O46  1  0.59521900  0.09649200  0.13842800  1
  O  O47  1  0.84963500  0.84963500  0.14625200  1
  O  O48  1  0.51474100  0.51474100  0.47307600  1
  O  O49  1  0.75970300  0.27103000  0.47245900  1
  O  O50  1  0.27103000  0.75970300  0.47245900  1
  O  O51  1  0.01401900  0.01401900  0.48592800  1
  O  O52  1  0.69307900  0.69307900  0.39369100  1
  O  O53  1  0.35956900  0.35956900  0.74063900  1
  O  O54  1  0.10942200  0.61441900  0.74341200  1
  O  O55  1  0.94351900  0.44480200  0.41682600  1
  O  O56  1  0.44480200  0.94351900  0.41682600  1
  O  O57  1  0.19565300  0.19565300  0.41181700  1
  O  O58  1  0.89163400  0.17617100  0.09909800  1
  O  O59  1  0.58438000  0.08339300  0.43971800  1
  O  O60  1  0.81697900  0.81697900  0.46539600  1
  O  O61  1  0.49436100  0.49436100  0.78089800  1
  O  O62  1  0.24707500  0.75028400  0.77864100  1
  O  O63  1  0.28891000  0.04878600  0.79656600  1
  O  O64  1  0.81259200  0.52417200  0.82058900  1
  O  O65  1  0.52417200  0.81259200  0.82058900  1
  O  O66  1  0.61441900  0.10942200  0.74341200  1
  O  O67  1  0.85918000  0.85918000  0.75527200  1
  O  O68  1  0.75028400  0.24707500  0.77864100  1
  O  O69  1  0.99600200  0.99600200  0.79199600  1
