# generated using pymatgen
data_Li4CrF6
_symmetry_space_group_name_H-M   'P 1'
_cell_length_a   8.78846365
_cell_length_b   8.78846365
_cell_length_c   10.46290544
_cell_angle_alpha   86.74383231
_cell_angle_beta   86.74383231
_cell_angle_gamma   62.50369212
_symmetry_Int_Tables_number   1
_chemical_formula_structural   Li4CrF6
_chemical_formula_sum   'Li24 Cr6 F36'
_cell_volume   715.25517624
_cell_formula_units_Z   6
loop_
 _symmetry_equiv_pos_site_id
 _symmetry_equiv_pos_as_xyz
  1  'x, y, z'
loop_
 _atom_site_type_symbol
 _atom_site_label
 _atom_site_symmetry_multiplicity
 _atom_site_fract_x
 _atom_site_fract_y
 _atom_site_fract_z
 _atom_site_occupancy
  Li  Li0  1  0.97061300  0.70321800  0.96601300  1
  Li  Li1  1  0.94682800  0.65583300  0.20838800  1
  Li  Li2  1  0.99822400  0.33860900  0.97188000  1
  Li  Li3  1  0.68982600  0.98824400  0.47242700  1
  Li  Li4  1  0.66202000  0.93888600  0.71543100  1
  Li  Li5  1  0.84616400  0.46738600  0.73349800  1
  Li  Li6  1  0.80185500  0.19814500  0.00000000  1
  Li  Li7  1  0.46733300  0.86257900  0.23230500  1
  Li  Li8  1  0.67453000  0.36951300  0.22978700  1
  Li  Li9  1  0.82109800  0.17890200  0.50000000  1
  Li  Li10  1  0.63048700  0.32547000  0.77021300  1
  Li  Li11  1  0.66139100  0.00177600  0.02812000  1
  Li  Li12  1  0.29457800  0.96926500  0.47878600  1
  Li  Li13  1  0.48912300  0.51087700  0.50000000  1
  Li  Li14  1  0.35750000  0.68456000  0.72798700  1
  Li  Li15  1  0.20365000  0.79635000  0.00000000  1
  Li  Li16  1  0.31544000  0.64250000  0.27201300  1
  Li  Li17  1  0.53261400  0.15383600  0.26650200  1
  Li  Li18  1  0.13742100  0.53266700  0.76769500  1
  Li  Li19  1  0.34416700  0.05317200  0.79161200  1
  Li  Li20  1  0.29678200  0.02938700  0.03398700  1
  Li  Li21  1  0.03073500  0.70542200  0.52121400  1
  Li  Li22  1  0.06111400  0.33798000  0.28456900  1
  Li  Li23  1  0.01175600  0.31017400  0.52757300  1
  Cr  Cr24  1  0.64877800  0.66096200  0.96480900  1
  Cr  Cr25  1  0.68375400  0.66479200  0.46092000  1
  Cr  Cr26  1  0.33903800  0.35122200  0.03519100  1
  Cr  Cr27  1  0.33520800  0.31624600  0.53908000  1
  Cr  Cr28  1  0.00037200  0.00203200  0.24901600  1
  Cr  Cr29  1  0.99796800  0.99962800  0.75098400  1
  F  F30  1  0.90608200  0.93663200  0.92092600  1
  F  F31  1  0.92090900  0.92556000  0.41667600  1
  F  F32  1  0.93023200  0.55686500  0.86731600  1
  F  F33  1  0.91917400  0.56316400  0.36798400  1
  F  F34  1  0.76924300  0.75230300  0.08694000  1
  F  F35  1  0.77030900  0.77725900  0.58437200  1
  F  F36  1  0.88522800  0.26448200  0.84011400  1
  F  F37  1  0.56866800  0.90288300  0.87462700  1
  F  F38  1  0.75573800  0.42925800  0.06330700  1
  F  F39  1  0.90840400  0.24319400  0.32668100  1
  F  F40  1  0.56630400  0.93566400  0.36104700  1
  F  F41  1  0.76852400  0.39822500  0.57612900  1
  F  F42  1  0.58799600  0.57050000  0.80975400  1
  F  F43  1  0.73551800  0.11477200  0.15988600  1
  F  F44  1  0.39618300  0.78771900  0.08106300  1
  F  F45  1  0.57657500  0.57658200  0.33279200  1
  F  F46  1  0.75680600  0.09159600  0.67331900  1
  F  F47  1  0.45321900  0.73806800  0.56013800  1
  F  F48  1  0.57074200  0.24426200  0.93669300  1
  F  F49  1  0.24078500  0.90817600  0.82991400  1
  F  F50  1  0.42950000  0.41200400  0.19024600  1
  F  F51  1  0.60177500  0.23147600  0.42387100  1
  F  F52  1  0.26781200  0.88229300  0.32496000  1
  F  F53  1  0.42341800  0.42342500  0.66720800  1
  F  F54  1  0.21228100  0.60381700  0.91893700  1
  F  F55  1  0.44313500  0.06976800  0.13268400  1
  F  F56  1  0.09182400  0.75921500  0.17008600  1
  F  F57  1  0.26193200  0.54678100  0.43986200  1
  F  F58  1  0.43683600  0.08082600  0.63201600  1
  F  F59  1  0.11770700  0.73218800  0.67504000  1
  F  F60  1  0.24769700  0.23075700  0.91306000  1
  F  F61  1  0.22274100  0.22969100  0.41562800  1
  F  F62  1  0.09711700  0.43133200  0.12537300  1
  F  F63  1  0.06433600  0.43369600  0.63895300  1
  F  F64  1  0.06336800  0.09391800  0.07907400  1
  F  F65  1  0.07444000  0.07909100  0.58332400  1
