# generated using pymatgen
data_Li2MnP3O10
_symmetry_space_group_name_H-M   'P 1'
_cell_length_a   8.61334300
_cell_length_b   4.67430200
_cell_length_c   9.36211777
_cell_angle_alpha   82.03701072
_cell_angle_beta   90.00000000
_cell_angle_gamma   90.00000000
_symmetry_Int_Tables_number   1
_chemical_formula_structural   Li2MnP3O10
_chemical_formula_sum   'Li4 Mn2 P6 O20'
_cell_volume   373.29718912
_cell_formula_units_Z   2
loop_
 _symmetry_equiv_pos_site_id
 _symmetry_equiv_pos_as_xyz
  1  'x, y, z'
loop_
 _atom_site_type_symbol
 _atom_site_label
 _atom_site_symmetry_multiplicity
 _atom_site_fract_x
 _atom_site_fract_y
 _atom_site_fract_z
 _atom_site_occupancy
  Li  Li0  1  0.92081300  0.96018900  0.37618300  1
  Li  Li1  1  0.57918700  0.96018900  0.37618300  1
  Li  Li2  1  0.42081300  0.03981100  0.62381700  1
  Li  Li3  1  0.07918700  0.03981100  0.62381700  1
  Mn  Mn4  1  0.00000000  0.00000000  0.00000000  1
  Mn  Mn5  1  0.50000000  0.00000000  0.00000000  1
  P  P6  1  0.75000000  0.67049800  0.83025900  1
  P  P7  1  0.25000000  0.59981300  0.47253900  1
  P  P8  1  0.25000000  0.46820100  0.86255200  1
  P  P9  1  0.75000000  0.53179900  0.13744800  1
  P  P10  1  0.75000000  0.40018700  0.52746100  1
  P  P11  1  0.25000000  0.32950200  0.16974100  1
  O  O12  1  0.89818100  0.85109500  0.83981000  1
  O  O13  1  0.60181900  0.85109500  0.83981000  1
  O  O14  1  0.25000000  0.74758300  0.76398600  1
  O  O15  1  0.39755000  0.77371700  0.47118600  1
  O  O16  1  0.10245000  0.77371700  0.47118600  1
  O  O17  1  0.75000000  0.68973300  0.43297200  1
  O  O18  1  0.60194400  0.71891600  0.13800200  1
  O  O19  1  0.89805600  0.71891600  0.13800200  1
  O  O20  1  0.75000000  0.42349800  0.97275400  1
  O  O21  1  0.25000000  0.50304000  0.29425800  1
  O  O22  1  0.75000000  0.49696000  0.70574200  1
  O  O23  1  0.25000000  0.57650200  0.02724600  1
  O  O24  1  0.10194400  0.28108400  0.86199800  1
  O  O25  1  0.39805600  0.28108400  0.86199800  1
  O  O26  1  0.25000000  0.31026700  0.56702800  1
  O  O27  1  0.89755000  0.22628300  0.52881400  1
  O  O28  1  0.60245000  0.22628300  0.52881400  1
  O  O29  1  0.75000000  0.25241700  0.23601400  1
  O  O30  1  0.39818100  0.14890500  0.16019000  1
  O  O31  1  0.10181900  0.14890500  0.16019000  1
