# generated using pymatgen
data_Na2Li2CoO4
_symmetry_space_group_name_H-M   'P 1'
_cell_length_a   6.58529300
_cell_length_b   8.00536950
_cell_length_c   8.31292928
_cell_angle_alpha   89.86608789
_cell_angle_beta   88.87040533
_cell_angle_gamma   89.70307637
_symmetry_Int_Tables_number   1
_chemical_formula_structural   Na2Li2CoO4
_chemical_formula_sum   'Na8 Li8 Co4 O16'
_cell_volume   438.14639827
_cell_formula_units_Z   4
loop_
 _symmetry_equiv_pos_site_id
 _symmetry_equiv_pos_as_xyz
  1  'x, y, z'
loop_
 _atom_site_type_symbol
 _atom_site_label
 _atom_site_symmetry_multiplicity
 _atom_site_fract_x
 _atom_site_fract_y
 _atom_site_fract_z
 _atom_site_occupancy
  Na  Na0  1  0.26526700  0.48946600  0.03154200  1
  Na  Na1  1  0.73665900  0.49316400  0.00834400  1
  Na  Na2  1  0.46690900  0.78898200  0.24344400  1
  Na  Na3  1  0.02690100  0.21936600  0.23404200  1
  Na  Na4  1  0.75737800  0.99893900  0.48882900  1
  Na  Na5  1  0.24339100  0.00129500  0.50181000  1
  Na  Na6  1  0.00619300  0.74100400  0.76719100  1
  Na  Na7  1  0.49141300  0.24171100  0.74983700  1
  Li  Li8  1  0.74663100  0.51458700  0.34952500  1
  Li  Li9  1  0.02144900  0.70617300  0.41132200  1
  Li  Li10  1  0.99870400  0.26809300  0.57961700  1
  Li  Li11  1  0.24786800  0.48775800  0.63045500  1
  Li  Li12  1  0.75188300  0.48392700  0.64919300  1
  Li  Li13  1  0.25013500  0.98935300  0.87541600  1
  Li  Li14  1  0.74793300  0.99099000  0.87101800  1
  Li  Li15  1  0.49957500  0.76271200  0.91908700  1
  Co  Co16  1  0.99232400  0.78028900  0.12585600  1
  Co  Co17  1  0.49638100  0.27974900  0.36745300  1
  Co  Co18  1  0.50420100  0.72914000  0.62963300  1
  Co  Co19  1  0.99810400  0.23493600  0.86027600  1
  O  O20  1  0.22668900  0.78612500  0.00454500  1
  O  O21  1  0.76832300  0.79186100  0.00257000  1
  O  O22  1  0.98262700  0.57143400  0.21448300  1
  O  O23  1  0.51230900  0.45346500  0.22864700  1
  O  O24  1  0.00631300  0.92289500  0.29117800  1
  O  O25  1  0.49963000  0.06886300  0.30956400  1
  O  O26  1  0.26964600  0.29139600  0.49914600  1
  O  O27  1  0.73738600  0.30647300  0.48524700  1
  O  O28  1  0.26728000  0.71234400  0.53101100  1
  O  O29  1  0.73863600  0.69668400  0.51671100  1
  O  O30  1  0.50554300  0.92751700  0.73546800  1
  O  O31  1  0.00307000  0.04317400  0.73174200  1
  O  O32  1  0.50208100  0.55773400  0.77405600  1
  O  O33  1  0.00038100  0.44569100  0.76566000  1
  O  O34  1  0.23486500  0.21885000  0.94590000  1
  O  O35  1  0.75168100  0.22168600  0.93050200  1
