# generated using pymatgen
data_LiMnPO4
_symmetry_space_group_name_H-M   'P 1'
_cell_length_a   9.88533455
_cell_length_b   9.88533455
_cell_length_c   22.48206600
_cell_angle_alpha   90.00000000
_cell_angle_beta   90.00000000
_cell_angle_gamma   120.00000366
_symmetry_Int_Tables_number   1
_chemical_formula_structural   LiMnPO4
_chemical_formula_sum   'Li24 Mn24 P24 O96'
_cell_volume   1902.60913379
_cell_formula_units_Z   24
loop_
 _symmetry_equiv_pos_site_id
 _symmetry_equiv_pos_as_xyz
  1  'x, y, z'
loop_
 _atom_site_type_symbol
 _atom_site_label
 _atom_site_symmetry_multiplicity
 _atom_site_fract_x
 _atom_site_fract_y
 _atom_site_fract_z
 _atom_site_occupancy
  Li  Li0  1  0.14871200  0.83157000  0.67878400  1
  Li  Li1  1  0.18387900  0.88000000  0.01056200  1
  Li  Li2  1  0.17982500  0.79047000  0.37569700  1
  Li  Li3  1  0.12000000  0.30388000  0.67722900  1
  Li  Li4  1  0.33076800  0.67597400  0.81896000  1
  Li  Li5  1  0.32402600  0.65479300  0.48562600  1
  Li  Li6  1  0.34520700  0.66923200  0.15229300  1
  Li  Li7  1  0.16843000  0.31714200  0.34545100  1
  Li  Li8  1  0.20953000  0.38935600  0.04236300  1
  Li  Li9  1  0.61064400  0.82017500  0.70903000  1
  Li  Li10  1  0.30388000  0.18387900  0.84389600  1
  Li  Li11  1  0.31714200  0.14871200  0.51211700  1
  Li  Li12  1  0.68285800  0.85128800  0.01211700  1
  Li  Li13  1  0.69612000  0.81612100  0.34389600  1
  Li  Li14  1  0.38935600  0.17982500  0.20903000  1
  Li  Li15  1  0.79047000  0.61064400  0.54236300  1
  Li  Li16  1  0.83157000  0.68285800  0.84545100  1
  Li  Li17  1  0.65479300  0.33076800  0.65229300  1
  Li  Li18  1  0.67597400  0.34520700  0.98562600  1
  Li  Li19  1  0.66923200  0.32402600  0.31896000  1
  Li  Li20  1  0.88000000  0.69612000  0.17722900  1
  Li  Li21  1  0.82017500  0.20953000  0.87569700  1
  Li  Li22  1  0.81612100  0.12000000  0.51056200  1
  Li  Li23  1  0.85128800  0.16843000  0.17878400  1
  Mn  Mn24  1  0.00507000  0.96245600  0.41994000  1
  Mn  Mn25  1  0.05163500  0.55280400  0.91309000  1
  Mn  Mn26  1  0.04028600  0.50687300  0.25150000  1
  Mn  Mn27  1  0.02006500  0.48209100  0.59015400  1
  Mn  Mn28  1  0.46202600  0.97993500  0.92348800  1
  Mn  Mn29  1  0.46658700  0.95971400  0.58483300  1
  Mn  Mn30  1  0.03754400  0.04261400  0.08660600  1
  Mn  Mn31  1  0.50116900  0.94836500  0.24642300  1
  Mn  Mn32  1  0.04261400  0.00507000  0.25327300  1
  Mn  Mn33  1  0.44719600  0.49883100  0.57975600  1
  Mn  Mn34  1  0.49312700  0.53341300  0.91816600  1
  Mn  Mn35  1  0.51790900  0.53797400  0.25682100  1
  Mn  Mn36  1  0.48209100  0.46202600  0.75682100  1
  Mn  Mn37  1  0.50687300  0.46658700  0.41816600  1
  Mn  Mn38  1  0.55280400  0.50116900  0.07975600  1
  Mn  Mn39  1  0.95738600  0.99493000  0.75327300  1
  Mn  Mn40  1  0.49883100  0.05163500  0.74642300  1
  Mn  Mn41  1  0.96245600  0.95738600  0.58660600  1
  Mn  Mn42  1  0.53341300  0.04028600  0.08483300  1
  Mn  Mn43  1  0.53797400  0.02006500  0.42348800  1
  Mn  Mn44  1  0.97993500  0.51790900  0.09015400  1
  Mn  Mn45  1  0.95971400  0.49312700  0.75150000  1
  Mn  Mn46  1  0.94836500  0.44719600  0.41309000  1
  Mn  Mn47  1  0.99493000  0.03754400  0.91994000  1
  P  P48  1  0.16969200  0.85715200  0.81475700  1
  P  P49  1  0.12797600  0.77611300  0.50695700  1
  P  P50  1  0.21335000  0.87996100  0.14675100  1
  P  P51  1  0.12003900  0.33338900  0.81341800  1
  P  P52  1  0.32609100  0.68942400  0.01211900  1
  P  P53  1  0.14284800  0.31254000  0.48142300  1
  P  P54  1  0.31057600  0.63666700  0.67878600  1
  P  P55  1  0.36333300  0.67390900  0.34545300  1
  P  P56  1  0.22388700  0.35186300  0.17362300  1
  P  P57  1  0.64813700  0.87202400  0.84029000  1
  P  P58  1  0.33338900  0.21335000  0.98008400  1
  P  P59  1  0.31254000  0.16969200  0.64809000  1
  P  P60  1  0.68746000  0.83030800  0.14809000  1
  P  P61  1  0.66661100  0.78665000  0.48008400  1
  P  P62  1  0.35186300  0.12797600  0.34029000  1
  P  P63  1  0.77611300  0.64813700  0.67362300  1
  P  P64  1  0.63666700  0.32609100  0.84545300  1
  P  P65  1  0.68942400  0.36333300  0.17878600  1
  P  P66  1  0.85715200  0.68746000  0.98142300  1
  P  P67  1  0.67390900  0.31057600  0.51211900  1
  P  P68  1  0.87996100  0.66661100  0.31341800  1
  P  P69  1  0.78665000  0.12003900  0.64675100  1
  P  P70  1  0.87202400  0.22388700  0.00695700  1
  P  P71  1  0.83030800  0.14284800  0.31475700  1
  O  O72  1  0.01738000  0.70076000  0.80130800  1
  O  O73  1  0.12260200  0.97472600  0.84080800  1
  O  O74  1  0.01244400  0.67863600  0.55750000  1
  O  O75  1  0.12538700  0.93223800  0.49818400  1
  O  O76  1  0.17736800  0.99179100  0.18323800  1
  O  O77  1  0.05996800  0.72706800  0.13463900  1
  O  O78  1  0.07482500  0.67872600  0.44875300  1
  O  O79  1  0.25603900  0.92183000  0.75473300  1
  O  O80  1  0.28547200  0.96336900  0.08674300  1
  O  O81  1  0.14672900  0.62699500  0.67792000  1
  O  O82  1  0.20701200  0.71153900  0.97415600  1
  O  O83  1  0.27956200  0.83138300  0.85725100  1
  O  O84  1  0.20687600  0.64678200  0.31873300  1
  O  O85  1  0.29404800  0.81151200  0.52424700  1
  O  O86  1  0.03663100  0.32210300  0.75341000  1
  O  O87  1  0.33532100  0.85104400  0.17937700  1
  O  O88  1  0.14895600  0.48427700  0.84604400  1
  O  O89  1  0.00820900  0.18557700  0.84990500  1
  O  O90  1  0.07817000  0.33421000  0.42139900  1
  O  O91  1  0.02527400  0.14787700  0.50747500  1
  O  O92  1  0.25564000  0.63577600  0.07438400  1
  O  O93  1  0.06776200  0.19314900  0.16485100  1
  O  O94  1  0.16861700  0.44817900  0.52391800  1
  O  O95  1  0.18848800  0.48253600  0.19091400  1
  O  O96  1  0.38013700  0.74436000  0.40771700  1
  O  O97  1  0.28846100  0.49547300  0.64082200  1
  O  O98  1  0.36422400  0.61986300  0.74105100  1
  O  O99  1  0.35321800  0.56009400  0.98539900  1
  O  O100  1  0.43990600  0.79312400  0.65206600  1
  O  O101  1  0.48026600  0.85327100  0.01125300  1
  O  O102  1  0.37300500  0.51973400  0.34458600  1
  O  O103  1  0.14787700  0.12260200  0.67414200  1
  O  O104  1  0.18557700  0.17736800  0.01657200  1
  O  O105  1  0.27293200  0.33290000  0.80130500  1
  O  O106  1  0.32127400  0.39609900  0.11541900  1
  O  O107  1  0.50452700  0.79298800  0.30748900  1
  O  O108  1  0.19314900  0.12538700  0.33151700  1
  O  O109  1  0.29924000  0.31662000  0.46797500  1
  O  O110  1  0.32136400  0.33380900  0.22416700  1
  O  O111  1  0.51746400  0.70595200  0.85758000  1
  O  O112  1  0.60390100  0.92517500  0.78208600  1
  O  O113  1  0.55182100  0.72043800  0.19058400  1
  O  O114  1  0.32210300  0.28547200  0.92007700  1
  O  O115  1  0.66619100  0.98755600  0.89083300  1
  O  O116  1  0.51572300  0.66467900  0.51271000  1
  O  O117  1  0.33421000  0.25603900  0.58806600  1
  O  O118  1  0.66710000  0.94003200  0.46797200  1
  O  O119  1  0.68338000  0.98262000  0.13464100  1
  O  O120  1  0.31662000  0.01738000  0.63464100  1
  O  O121  1  0.33290000  0.05996800  0.96797200  1
  O  O122  1  0.66579000  0.74396100  0.08806600  1
  O  O123  1  0.48427700  0.33532100  0.01271000  1
  O  O124  1  0.33380900  0.01244400  0.39083300  1
  O  O125  1  0.67789700  0.71452800  0.42007700  1
  O  O126  1  0.44817900  0.27956200  0.69058400  1
  O  O127  1  0.39609900  0.07482500  0.28208600  1
  O  O128  1  0.48253600  0.29404800  0.35758000  1
  O  O129  1  0.67863600  0.66619100  0.72416700  1
  O  O130  1  0.70076000  0.68338000  0.96797500  1
  O  O131  1  0.80685100  0.87461300  0.83151700  1
  O  O132  1  0.49547300  0.20701200  0.80748900  1
  O  O133  1  0.67872600  0.60390100  0.61541900  1
  O  O134  1  0.72706800  0.66710000  0.30130500  1
  O  O135  1  0.81442300  0.82263200  0.51657200  1
  O  O136  1  0.85212300  0.87739800  0.17414200  1
  O  O137  1  0.62699500  0.48026600  0.84458600  1
  O  O138  1  0.51973400  0.14672900  0.51125300  1
  O  O139  1  0.56009400  0.20687600  0.15206600  1
  O  O140  1  0.64678200  0.43990600  0.48539900  1
  O  O141  1  0.63577600  0.38013700  0.24105100  1
  O  O142  1  0.71153900  0.50452700  0.14082200  1
  O  O143  1  0.61986300  0.25564000  0.90771700  1
  O  O144  1  0.81151200  0.51746400  0.69091400  1
  O  O145  1  0.83138300  0.55182100  0.02391800  1
  O  O146  1  0.93223800  0.80685100  0.66485100  1
  O  O147  1  0.74436000  0.36422400  0.57438400  1
  O  O148  1  0.97472600  0.85212300  0.00747500  1
  O  O149  1  0.92183000  0.66579000  0.92139900  1
  O  O150  1  0.99179100  0.81442300  0.34990500  1
  O  O151  1  0.85104400  0.51572300  0.34604400  1
  O  O152  1  0.66467900  0.14895600  0.67937700  1
  O  O153  1  0.96336900  0.67789700  0.25341000  1
  O  O154  1  0.70595200  0.18848800  0.02424700  1
  O  O155  1  0.79312400  0.35321800  0.81873300  1
  O  O156  1  0.72043800  0.16861700  0.35725100  1
  O  O157  1  0.79298800  0.28846100  0.47415600  1
  O  O158  1  0.85327100  0.37300500  0.17792000  1
  O  O159  1  0.71452800  0.03663100  0.58674300  1
  O  O160  1  0.74396100  0.07817000  0.25473300  1
  O  O161  1  0.92517500  0.32127400  0.94875300  1
  O  O162  1  0.94003200  0.27293200  0.63463900  1
  O  O163  1  0.82263200  0.00820900  0.68323800  1
  O  O164  1  0.87461300  0.06776200  0.99818400  1
  O  O165  1  0.98755600  0.32136400  0.05750000  1
  O  O166  1  0.87739800  0.02527400  0.34080800  1
  O  O167  1  0.98262000  0.29924000  0.30130800  1
