# generated using pymatgen
data_LiV2OF5
_symmetry_space_group_name_H-M   'P 1'
_cell_length_a   5.20588300
_cell_length_b   4.66192100
_cell_length_c   17.63900915
_cell_angle_alpha   75.44378865
_cell_angle_beta   90.00000000
_cell_angle_gamma   90.00000000
_symmetry_Int_Tables_number   1
_chemical_formula_structural   LiV2OF5
_chemical_formula_sum   'Li4 V8 O4 F20'
_cell_volume   414.34745568
_cell_formula_units_Z   4
loop_
 _symmetry_equiv_pos_site_id
 _symmetry_equiv_pos_as_xyz
  1  'x, y, z'
loop_
 _atom_site_type_symbol
 _atom_site_label
 _atom_site_symmetry_multiplicity
 _atom_site_fract_x
 _atom_site_fract_y
 _atom_site_fract_z
 _atom_site_occupancy
  Li  Li0  1  0.50248100  0.61113100  0.38054500  1
  Li  Li1  1  0.01826100  0.37140400  0.61789400  1
  Li  Li2  1  0.49751900  0.61113100  0.88054500  1
  Li  Li3  1  0.98173900  0.37140400  0.11789400  1
  V  V4  1  0.02576800  0.69696100  0.28365700  1
  V  V5  1  0.50453700  0.96520900  0.05668100  1
  V  V6  1  0.00009800  0.04727500  0.95146900  1
  V  V7  1  0.49927100  0.28296000  0.71591300  1
  V  V8  1  0.49546300  0.96520900  0.55668100  1
  V  V9  1  0.97423200  0.69696100  0.78365700  1
  V  V10  1  0.50072900  0.28296000  0.21591300  1
  V  V11  1  0.99990200  0.04727500  0.45146900  1
  O  O12  1  0.31763500  0.47187100  0.28570700  1
  O  O13  1  0.36763300  0.14428600  0.62888400  1
  O  O14  1  0.68236500  0.47187100  0.78570700  1
  O  O15  1  0.63236700  0.14428600  0.12888400  1
  F  F16  1  0.83863400  0.05496200  0.70730000  1
  F  F17  1  0.84636500  0.38825400  0.37458200  1
  F  F18  1  0.83972100  0.74582200  0.03763500  1
  F  F19  1  0.33095000  0.82213500  0.96151800  1
  F  F20  1  0.33034400  0.26099000  0.46175100  1
  F  F21  1  0.84240400  0.19503300  0.53637800  1
  F  F22  1  0.83629400  0.86018200  0.87595700  1
  F  F23  1  0.33430100  0.61443800  0.12521500  1
  F  F24  1  0.82915000  0.52775200  0.20577500  1
  F  F25  1  0.31356600  0.93933200  0.79314100  1
  F  F26  1  0.16136600  0.05496200  0.20730000  1
  F  F27  1  0.15363500  0.38825400  0.87458200  1
  F  F28  1  0.16027900  0.74582200  0.53763500  1
  F  F29  1  0.66905000  0.82213500  0.46151800  1
  F  F30  1  0.15759600  0.19503300  0.03637800  1
  F  F31  1  0.66965600  0.26099000  0.96175100  1
  F  F32  1  0.16370600  0.86018200  0.37595700  1
  F  F33  1  0.66569900  0.61443800  0.62521500  1
  F  F34  1  0.68643400  0.93933200  0.29314100  1
  F  F35  1  0.17085000  0.52775200  0.70577500  1
