# generated using pymatgen
data_LiMnPO4
_symmetry_space_group_name_H-M   'P 1'
_cell_length_a   4.98018100
_cell_length_b   7.63015800
_cell_length_c   18.89728787
_cell_angle_alpha   88.76414184
_cell_angle_beta   90.00000000
_cell_angle_gamma   90.00000000
_symmetry_Int_Tables_number   1
_chemical_formula_structural   LiMnPO4
_chemical_formula_sum   'Li8 Mn8 P8 O32'
_cell_volume   717.92173235
_cell_formula_units_Z   8
loop_
 _symmetry_equiv_pos_site_id
 _symmetry_equiv_pos_as_xyz
  1  'x, y, z'
loop_
 _atom_site_type_symbol
 _atom_site_label
 _atom_site_symmetry_multiplicity
 _atom_site_fract_x
 _atom_site_fract_y
 _atom_site_fract_z
 _atom_site_occupancy
  Li  Li0  1  0.75875800  0.02409000  0.58846500  1
  Li  Li1  1  0.74124200  0.02409000  0.08846500  1
  Li  Li2  1  0.32925900  0.50232600  0.81817800  1
  Li  Li3  1  0.17074100  0.50232600  0.31817800  1
  Li  Li4  1  0.82925900  0.49767400  0.68182200  1
  Li  Li5  1  0.67074100  0.49767400  0.18182200  1
  Li  Li6  1  0.25875800  0.97591000  0.91153500  1
  Li  Li7  1  0.24124200  0.97591000  0.41153500  1
  Mn  Mn8  1  0.77109300  0.17557200  0.77318600  1
  Mn  Mn9  1  0.72890700  0.17557200  0.27318600  1
  Mn  Mn10  1  0.22268900  0.32669000  0.51935400  1
  Mn  Mn11  1  0.27731100  0.32669000  0.01935400  1
  Mn  Mn12  1  0.72268900  0.67331000  0.98064600  1
  Mn  Mn13  1  0.77731100  0.67331000  0.48064600  1
  Mn  Mn14  1  0.27109300  0.82442800  0.72681400  1
  Mn  Mn15  1  0.22890700  0.82442800  0.22681400  1
  P  P16  1  0.32411000  0.24845200  0.68372100  1
  P  P17  1  0.17589000  0.24845200  0.18372100  1
  P  P18  1  0.72961500  0.24989400  0.93566400  1
  P  P19  1  0.77038500  0.24989400  0.43566400  1
  P  P20  1  0.22961500  0.75010600  0.56433600  1
  P  P21  1  0.27038500  0.75010600  0.06433600  1
  P  P22  1  0.82411000  0.75154800  0.81627900  1
  P  P23  1  0.67589000  0.75154800  0.31627900  1
  O  O24  1  0.41334500  0.08139500  0.72709400  1
  O  O25  1  0.08665500  0.08139500  0.22709400  1
  O  O26  1  0.62653900  0.17060700  0.00702300  1
  O  O27  1  0.60849700  0.14782700  0.87326900  1
  O  O28  1  0.42096200  0.22327200  0.60695800  1
  O  O29  1  0.01368300  0.26899700  0.68875300  1
  O  O30  1  0.87346100  0.17060700  0.50702300  1
  O  O31  1  0.89150300  0.14782700  0.37326900  1
  O  O32  1  0.07903800  0.22327200  0.10695800  1
  O  O33  1  0.48631700  0.26899700  0.18875300  1
  O  O34  1  0.04193400  0.24642200  0.93218000  1
  O  O35  1  0.45806600  0.24642200  0.43218000  1
  O  O36  1  0.47095200  0.40287000  0.72034400  1
  O  O37  1  0.02904800  0.40287000  0.22034400  1
  O  O38  1  0.61352500  0.44114900  0.93039800  1
  O  O39  1  0.88647500  0.44114900  0.43039800  1
  O  O40  1  0.11352500  0.55885100  0.56960200  1
  O  O41  1  0.38647500  0.55885100  0.06960200  1
  O  O42  1  0.97095200  0.59713000  0.77965600  1
  O  O43  1  0.52904800  0.59713000  0.27965600  1
  O  O44  1  0.54193400  0.75357800  0.56782000  1
  O  O45  1  0.95806600  0.75357800  0.06782000  1
  O  O46  1  0.51368300  0.73100300  0.81124700  1
  O  O47  1  0.92096200  0.77672800  0.89304200  1
  O  O48  1  0.10849700  0.85217300  0.62673100  1
  O  O49  1  0.12653900  0.82939300  0.49297700  1
  O  O50  1  0.98631700  0.73100300  0.31124700  1
  O  O51  1  0.57903800  0.77672800  0.39304200  1
  O  O52  1  0.39150300  0.85217300  0.12673100  1
  O  O53  1  0.37346100  0.82939300  0.99297700  1
  O  O54  1  0.91334500  0.91860500  0.77290600  1
  O  O55  1  0.58665500  0.91860500  0.27290600  1
