# generated using pymatgen
data_Li5CoOF5
_symmetry_space_group_name_H-M   'P 1'
_cell_length_a   5.54300206
_cell_length_b   6.39443900
_cell_length_c   14.98298916
_cell_angle_alpha   90.00117120
_cell_angle_beta   89.98307439
_cell_angle_gamma   89.99842600
_symmetry_Int_Tables_number   1
_chemical_formula_structural   Li5CoOF5
_chemical_formula_sum   'Li20 Co4 O4 F20'
_cell_volume   531.06286626
_cell_formula_units_Z   4
loop_
 _symmetry_equiv_pos_site_id
 _symmetry_equiv_pos_as_xyz
  1  'x, y, z'
loop_
 _atom_site_type_symbol
 _atom_site_label
 _atom_site_symmetry_multiplicity
 _atom_site_fract_x
 _atom_site_fract_y
 _atom_site_fract_z
 _atom_site_occupancy
  Li  Li0  1  0.33339800  0.50000900  0.99383600  1
  Li  Li1  1  0.83340000  0.74997900  0.99383700  1
  Li  Li2  1  0.33339800  0.00000700  0.99383700  1
  Li  Li3  1  0.83339900  0.24997900  0.99383600  1
  Li  Li4  1  0.33340900  0.49998800  0.33858900  1
  Li  Li5  1  0.83340600  0.75003700  0.33859100  1
  Li  Li6  1  0.33340500  0.99999700  0.33859000  1
  Li  Li7  1  0.83341000  0.25004700  0.33858900  1
  Li  Li8  1  0.33338800  0.49998500  0.66608100  1
  Li  Li9  1  0.83338800  0.74998500  0.66608100  1
  Li  Li10  1  0.33338800  0.99998500  0.66608100  1
  Li  Li11  1  0.83338800  0.24998500  0.66608100  1
  Li  Li12  1  0.16664200  0.25001400  0.50227600  1
  Li  Li13  1  0.66664200  0.50001500  0.50227600  1
  Li  Li14  1  0.16664200  0.75001300  0.50227800  1
  Li  Li15  1  0.66664200  0.00001600  0.50227800  1
  Li  Li16  1  0.16663000  0.25002600  0.82967400  1
  Li  Li17  1  0.66663000  0.50002600  0.82967400  1
  Li  Li18  1  0.16663000  0.75002600  0.82967400  1
  Li  Li19  1  0.66663000  0.00002600  0.82967400  1
  Co  Co20  1  0.16725700  0.24896000  0.16048200  1
  Co  Co21  1  0.66724800  0.50114800  0.16048100  1
  Co  Co22  1  0.16725200  0.74895600  0.16049900  1
  Co  Co23  1  0.66724500  0.00114700  0.16049800  1
  O  O24  1  0.33280900  0.49981500  0.12621800  1
  O  O25  1  0.83280400  0.75026800  0.12620300  1
  O  O26  1  0.33280700  0.99981300  0.12620500  1
  O  O27  1  0.83281000  0.25026000  0.12622100  1
  F  F28  1  0.33334600  0.50001400  0.46492000  1
  F  F29  1  0.83334800  0.75002400  0.46492000  1
  F  F30  1  0.33334900  0.00001300  0.46492000  1
  F  F31  1  0.83334500  0.25002200  0.46492000  1
  F  F32  1  0.33332000  0.50000100  0.79236700  1
  F  F33  1  0.83331900  0.75000000  0.79236700  1
  F  F34  1  0.33332000  0.00000200  0.79236700  1
  F  F35  1  0.83331900  0.25000100  0.79236700  1
  F  F36  1  0.16670700  0.24981800  0.30405700  1
  F  F37  1  0.66670300  0.50020100  0.30405700  1
  F  F38  1  0.16669800  0.74983400  0.30404100  1
  F  F39  1  0.66670100  0.00017900  0.30404400  1
  F  F40  1  0.16670700  0.24999200  0.95588600  1
  F  F41  1  0.66671000  0.49997400  0.95588700  1
  F  F42  1  0.16671000  0.74998800  0.95588600  1
  F  F43  1  0.66671000  0.99998000  0.95588700  1
  F  F44  1  0.16669900  0.25001100  0.62864900  1
  F  F45  1  0.66669800  0.50001100  0.62864900  1
  F  F46  1  0.16669900  0.75001000  0.62865000  1
  F  F47  1  0.66669700  0.00001200  0.62865000  1
