# generated using pymatgen
data_Li2Mn3(BO3)3
_symmetry_space_group_name_H-M   'P 1'
_cell_length_a   5.26947700
_cell_length_b   8.30121684
_cell_length_c   9.25556156
_cell_angle_alpha   104.33468729
_cell_angle_beta   105.66162047
_cell_angle_gamma   90.63127139
_symmetry_Int_Tables_number   1
_chemical_formula_structural   Li2Mn3(BO3)3
_chemical_formula_sum   'Li4 Mn6 B6 O18'
_cell_volume   376.38042050
_cell_formula_units_Z   2
loop_
 _symmetry_equiv_pos_site_id
 _symmetry_equiv_pos_as_xyz
  1  'x, y, z'
loop_
 _atom_site_type_symbol
 _atom_site_label
 _atom_site_symmetry_multiplicity
 _atom_site_fract_x
 _atom_site_fract_y
 _atom_site_fract_z
 _atom_site_occupancy
  Li  Li0  1  0.98544500  0.36939000  0.29236900  1
  Li  Li1  1  0.33564500  0.95128600  0.35732600  1
  Li  Li2  1  0.65931900  0.04331300  0.64176700  1
  Li  Li3  1  0.30763100  0.70039700  0.95597200  1
  Mn  Mn4  1  0.78089300  0.02985700  0.20576100  1
  Mn  Mn5  1  0.86489800  0.62927900  0.11428700  1
  Mn  Mn6  1  0.55409200  0.30519700  0.45136700  1
  Mn  Mn7  1  0.45763800  0.69020400  0.55592700  1
  Mn  Mn8  1  0.12995100  0.35754700  0.88922300  1
  Mn  Mn9  1  0.19978200  0.96797700  0.78038400  1
  B  B10  1  0.22346700  0.13375700  0.10371100  1
  B  B11  1  0.43649400  0.52602900  0.22936400  1
  B  B12  1  0.10918300  0.17903500  0.55336600  1
  B  B13  1  0.89650200  0.82421400  0.44397300  1
  B  B14  1  0.57033300  0.48922200  0.78367900  1
  B  B15  1  0.77178000  0.85180200  0.88958600  1
  O  O16  1  0.98145000  0.17634700  0.11740600  1
  O  O17  1  0.68495100  0.81031300  0.00779900  1
  O  O18  1  0.25801400  0.57656600  0.11100900  1
  O  O19  1  0.41001300  0.09008500  0.22416400  1
  O  O20  1  0.69615900  0.50639800  0.23131200  1
  O  O21  1  0.34413800  0.48871900  0.34727100  1
  O  O22  1  0.92769700  0.22797000  0.43523400  1
  O  O23  1  0.97008900  0.83140200  0.30908100  1
  O  O24  1  0.36154000  0.14848000  0.54641100  1
  O  O25  1  0.64462700  0.84668000  0.45380800  1
  O  O26  1  0.02192700  0.14720000  0.67628200  1
  O  O27  1  0.10176800  0.80654400  0.57044300  1
  O  O28  1  0.63639500  0.50663000  0.65261200  1
  O  O29  1  0.32078200  0.50338400  0.79630000  1
  O  O30  1  0.58590400  0.90056600  0.77261600  1
  O  O31  1  0.77952000  0.46444500  0.90724300  1
  O  O32  1  0.29729100  0.14870800  0.97033400  1
  O  O33  1  0.03152000  0.83988700  0.89081100  1
