# generated using pymatgen
data_Li5Mn6(BO3)6
_symmetry_space_group_name_H-M   'P 1'
_cell_length_a   8.28395300
_cell_length_b   8.80141213
_cell_length_c   12.63403627
_cell_angle_alpha   70.22015359
_cell_angle_beta   71.06586896
_cell_angle_gamma   62.49720999
_symmetry_Int_Tables_number   1
_chemical_formula_structural   Li5Mn6(BO3)6
_chemical_formula_sum   'Li10 Mn12 B12 O36'
_cell_volume   753.07161283
_cell_formula_units_Z   2
loop_
 _symmetry_equiv_pos_site_id
 _symmetry_equiv_pos_as_xyz
  1  'x, y, z'
loop_
 _atom_site_type_symbol
 _atom_site_label
 _atom_site_symmetry_multiplicity
 _atom_site_fract_x
 _atom_site_fract_y
 _atom_site_fract_z
 _atom_site_occupancy
  Li  Li0  1  0.01044100  0.09371500  0.19481800  1
  Li  Li1  1  0.27699400  0.40231500  0.30335000  1
  Li  Li2  1  0.28422500  0.15038200  0.55153500  1
  Li  Li3  1  0.00943800  0.84006200  0.44834800  1
  Li  Li4  1  0.02170600  0.33491100  0.94405200  1
  Li  Li5  1  0.02352500  0.58122300  0.69688600  1
  Li  Li6  1  0.28113200  0.90059200  0.79671900  1
  Li  Li7  1  0.69716800  0.88965200  0.12607600  1
  Li  Li8  1  0.69954400  0.63824300  0.37476000  1
  Li  Li9  1  0.70979700  0.13446900  0.88379300  1
  Mn  Mn10  1  0.61944500  0.29765000  0.09735000  1
  Mn  Mn11  1  0.63482000  0.02807400  0.34200400  1
  Mn  Mn12  1  0.35524800  0.74350300  0.24589100  1
  Mn  Mn13  1  0.37467100  0.49331400  0.49929400  1
  Mn  Mn14  1  0.40071300  0.23379600  0.74373400  1
  Mn  Mn15  1  0.98205600  0.23773300  0.41633400  1
  Mn  Mn16  1  0.00007900  0.48104500  0.15882300  1
  Mn  Mn17  1  0.64368500  0.51957300  0.83880600  1
  Mn  Mn18  1  0.63722100  0.76907500  0.59058400  1
  Mn  Mn19  1  0.36348600  0.97836800  0.99583800  1
  Mn  Mn20  1  0.98393100  0.99131000  0.66149100  1
  Mn  Mn21  1  0.99760900  0.73005000  0.91056700  1
  B  B22  1  0.33101800  0.13005600  0.20242200  1
  B  B23  1  0.01935700  0.24145500  0.75400800  1
  B  B24  1  0.00578600  0.50532000  0.49651700  1
  B  B25  1  0.32467900  0.62026800  0.71453400  1
  B  B26  1  0.32760200  0.87820000  0.45650800  1
  B  B27  1  0.34334700  0.36175500  0.95562400  1
  B  B28  1  0.66813300  0.12117300  0.54433800  1
  B  B29  1  0.66116900  0.37947700  0.28871600  1
  B  B30  1  0.67152700  0.62007400  0.04503700  1
  B  B31  1  0.98798700  0.75409000  0.25455900  1
  B  B32  1  0.66940000  0.87496300  0.78885000  1
  B  B33  1  0.98863200  0.01404500  0.00041800  1
  O  O34  1  0.07638900  0.09128500  0.03137700  1
  O  O35  1  0.14081700  0.20659100  0.23758800  1
  O  O36  1  0.10201500  0.59950800  0.21994600  1
  O  O37  1  0.12538100  0.10371100  0.69743500  1
  O  O38  1  0.12079600  0.35210200  0.45519100  1
  O  O39  1  0.06406100  0.84677600  0.28120500  1
  O  O40  1  0.08583500  0.58639700  0.53066900  1
  O  O41  1  0.10836800  0.32530200  0.77773500  1
  O  O42  1  0.44142900  0.20150900  0.21878100  1
  O  O43  1  0.79486600  0.07052500  0.03134300  1
  O  O44  1  0.13595300  0.95643800  0.48478400  1
  O  O45  1  0.13420700  0.71084400  0.73688000  1
  O  O46  1  0.15473900  0.44928300  0.98352700  1
  O  O47  1  0.47036300  0.45504700  0.32394400  1
  O  O48  1  0.47242500  0.20312100  0.58230100  1
  O  O49  1  0.48263700  0.70679700  0.07257500  1
  O  O50  1  0.39895200  0.46930200  0.67158000  1
  O  O51  1  0.42128800  0.22339300  0.89909400  1
  O  O52  1  0.73648200  0.24266000  0.22915000  1
  O  O53  1  0.41608700  0.73263600  0.40707700  1
  O  O54  1  0.41604700  0.98583200  0.15439600  1
  O  O55  1  0.09465400  0.88605200  0.93814000  1
  O  O56  1  0.43982300  0.68045200  0.73164600  1
  O  O57  1  0.43531000  0.94380800  0.47777300  1
  O  O58  1  0.46928600  0.40309600  0.97941100  1
  O  O59  1  0.78035500  0.18020300  0.56269900  1
  O  O60  1  0.77905900  0.43133300  0.30949600  1
  O  O61  1  0.79285400  0.67822500  0.05754500  1
  O  O62  1  0.79541800  0.81841300  0.26508800  1
  O  O63  1  0.81738600  0.57839200  0.50139100  1
  O  O64  1  0.83000700  0.29300000  0.78827800  1
  O  O65  1  0.47346100  0.97181600  0.80652000  1
  O  O66  1  0.73719500  0.98387200  0.49026600  1
  O  O67  1  0.74483500  0.72531100  0.74607400  1
  O  O68  1  0.74517100  0.46530600  0.00326800  1
  O  O69  1  0.77679300  0.93444800  0.81415500  1
