# generated using pymatgen
data_K8Li9Cr4O16
_symmetry_space_group_name_H-M   'P 1'
_cell_length_a   5.60777700
_cell_length_b   9.12651003
_cell_length_c   10.48474964
_cell_angle_alpha   88.30814889
_cell_angle_beta   80.97756493
_cell_angle_gamma   89.65648104
_symmetry_Int_Tables_number   1
_chemical_formula_structural   K8Li9Cr4O16
_chemical_formula_sum   'K8 Li9 Cr4 O16'
_cell_volume   529.73261765
_cell_formula_units_Z   1
loop_
 _symmetry_equiv_pos_site_id
 _symmetry_equiv_pos_as_xyz
  1  'x, y, z'
loop_
 _atom_site_type_symbol
 _atom_site_label
 _atom_site_symmetry_multiplicity
 _atom_site_fract_x
 _atom_site_fract_y
 _atom_site_fract_z
 _atom_site_occupancy
  K  K0  1  0.82684500  0.99707600  0.87152000  1
  K  K1  1  0.89095800  0.28484700  0.37407300  1
  K  K2  1  0.62503200  0.49296400  0.64959300  1
  K  K3  1  0.35307200  0.26507000  0.86970600  1
  K  K4  1  0.64906500  0.72813600  0.12488100  1
  K  K5  1  0.35893700  0.50683900  0.35240000  1
  K  K6  1  0.10476900  0.72936000  0.62047700  1
  K  K7  1  0.16804800  0.99158300  0.13733700  1
  Li  Li8  1  0.92796700  0.24866900  0.70129400  1
  Li  Li9  1  0.72579800  0.51683100  0.92438100  1
  Li  Li10  1  0.83118400  0.01495400  0.55806800  1
  Li  Li11  1  0.58075400  0.74903000  0.80904400  1
  Li  Li12  1  0.58205200  0.02809900  0.30277000  1
  Li  Li13  1  0.38592900  0.97018100  0.70635500  1
  Li  Li14  1  0.41165900  0.25325700  0.19234500  1
  Li  Li15  1  0.28944700  0.48877900  0.06969600  1
  Li  Li16  1  0.08241100  0.75225500  0.30412700  1
  Cr  Cr17  1  0.82822600  0.28241700  0.06038500  1
  Cr  Cr18  1  0.65586800  0.78977000  0.44643300  1
  Cr  Cr19  1  0.33682200  0.20234100  0.54899000  1
  Cr  Cr20  1  0.17022800  0.71322700  0.94173800  1
  O  O21  1  0.87934800  0.71003000  0.86974200  1
  O  O22  1  0.85187900  0.30251400  0.88588200  1
  O  O23  1  0.85285200  0.93899600  0.37533000  1
  O  O24  1  0.82644200  0.62371900  0.41639100  1
  O  O25  1  0.61100800  0.82195100  0.61977300  1
  O  O26  1  0.60968800  0.18149800  0.62500700  1
  O  O27  1  0.67215500  0.11262400  0.12024500  1
  O  O28  1  0.40883300  0.56449900  0.88896200  1
  O  O29  1  0.61205500  0.42273500  0.11928700  1
  O  O30  1  0.31868700  0.89892200  0.87819900  1
  O  O31  1  0.39796500  0.80171100  0.36439500  1
  O  O32  1  0.40073600  0.20207600  0.37486600  1
  O  O33  1  0.18436000  0.37219400  0.59115800  1
  O  O34  1  0.12008200  0.07025300  0.63426800  1
  O  O35  1  0.15942000  0.68463500  0.12588700  1
  O  O36  1  0.11437800  0.29286500  0.11939600  1
