# generated using pymatgen
data_LiNi(PO3)3
_symmetry_space_group_name_H-M   'P 1'
_cell_length_a   5.19366200
_cell_length_b   10.21665300
_cell_length_c   12.79355000
_cell_angle_alpha   90.00000000
_cell_angle_beta   90.00000000
_cell_angle_gamma   90.00000000
_symmetry_Int_Tables_number   1
_chemical_formula_structural   LiNi(PO3)3
_chemical_formula_sum   'Li4 Ni4 P12 O36'
_cell_volume   678.84933452
_cell_formula_units_Z   4
loop_
 _symmetry_equiv_pos_site_id
 _symmetry_equiv_pos_as_xyz
  1  'x, y, z'
loop_
 _atom_site_type_symbol
 _atom_site_label
 _atom_site_symmetry_multiplicity
 _atom_site_fract_x
 _atom_site_fract_y
 _atom_site_fract_z
 _atom_site_occupancy
  Li  Li0  1  0.57266700  0.06226200  0.89937700  1
  Li  Li1  1  0.07266700  0.43773800  0.10062300  1
  Li  Li2  1  0.42733300  0.56226200  0.60062300  1
  Li  Li3  1  0.92733300  0.93773800  0.39937700  1
  Ni  Ni4  1  0.09622900  0.11266300  0.15402800  1
  Ni  Ni5  1  0.59622900  0.38733700  0.84597200  1
  Ni  Ni6  1  0.90377100  0.61266300  0.34597200  1
  Ni  Ni7  1  0.40377100  0.88733700  0.65402800  1
  P  P8  1  0.88467800  0.08331000  0.62712000  1
  P  P9  1  0.39427300  0.12711300  0.36877200  1
  P  P10  1  0.08130300  0.22838400  0.80814000  1
  P  P11  1  0.58130300  0.27161600  0.19186000  1
  P  P12  1  0.89427300  0.37288700  0.63122800  1
  P  P13  1  0.38467800  0.41669000  0.37288000  1
  P  P14  1  0.11532200  0.58331000  0.87288000  1
  P  P15  1  0.60572700  0.62711300  0.13122800  1
  P  P16  1  0.91869700  0.72838400  0.69186000  1
  P  P17  1  0.41869700  0.77161600  0.30814000  1
  P  P18  1  0.10572700  0.87288700  0.86877200  1
  P  P19  1  0.61532200  0.91669000  0.12712000  1
  O  O20  1  0.04038500  0.99198500  0.56061100  1
  O  O21  1  0.61731400  0.04586900  0.66131700  1
  O  O22  1  0.52224100  0.03137600  0.43811400  1
  O  O23  1  0.06353400  0.10542800  0.73108400  1
  O  O24  1  0.13500600  0.09646000  0.31820000  1
  O  O25  1  0.59532700  0.15368400  0.27351500  1
  O  O26  1  0.33575200  0.22917900  0.86412300  1
  O  O27  1  0.83314200  0.23615600  0.86991200  1
  O  O28  1  0.87870700  0.22862900  0.57739300  1
  O  O29  1  0.37870700  0.27137100  0.42260700  1
  O  O30  1  0.33314200  0.26384400  0.13008800  1
  O  O31  1  0.83575200  0.27082100  0.13587700  1
  O  O32  1  0.09532700  0.34631600  0.72648500  1
  O  O33  1  0.63500600  0.40354000  0.68180100  1
  O  O34  1  0.56353400  0.39457200  0.26891600  1
  O  O35  1  0.02224100  0.46862400  0.56188600  1
  O  O36  1  0.11731400  0.45413100  0.33868300  1
  O  O37  1  0.54038500  0.50801500  0.43938900  1
  O  O38  1  0.95961500  0.49198500  0.93938900  1
  O  O39  1  0.38268600  0.54586900  0.83868300  1
  O  O40  1  0.47775900  0.53137600  0.06188600  1
  O  O41  1  0.93646600  0.60542800  0.76891600  1
  O  O42  1  0.86499400  0.59646000  0.18180000  1
  O  O43  1  0.40467300  0.65368400  0.22648500  1
  O  O44  1  0.66424800  0.72917900  0.63587700  1
  O  O45  1  0.16685800  0.73615600  0.63008800  1
  O  O46  1  0.12129300  0.72862900  0.92260700  1
  O  O47  1  0.62129300  0.77137100  0.07739300  1
  O  O48  1  0.66685800  0.76384400  0.36991200  1
  O  O49  1  0.16424800  0.77082100  0.36412300  1
  O  O50  1  0.90467300  0.84631600  0.77351500  1
  O  O51  1  0.36499400  0.90354000  0.81819900  1
  O  O52  1  0.43646600  0.89457200  0.23108400  1
  O  O53  1  0.97775900  0.96862400  0.93811400  1
  O  O54  1  0.88268600  0.95413100  0.16131700  1
  O  O55  1  0.45961500  0.00801500  0.06061100  1
