# generated using pymatgen
data_Li3V3P8O29
_symmetry_space_group_name_H-M   'P 1'
_cell_length_a   9.73099873
_cell_length_b   9.73099873
_cell_length_c   14.36812871
_cell_angle_alpha   89.01899660
_cell_angle_beta   89.01899660
_cell_angle_gamma   60.47926755
_symmetry_Int_Tables_number   1
_chemical_formula_structural   Li3V3P8O29
_chemical_formula_sum   'Li6 V6 P16 O58'
_cell_volume   1183.68888888
_cell_formula_units_Z   2
loop_
 _symmetry_equiv_pos_site_id
 _symmetry_equiv_pos_as_xyz
  1  'x, y, z'
loop_
 _atom_site_type_symbol
 _atom_site_label
 _atom_site_symmetry_multiplicity
 _atom_site_fract_x
 _atom_site_fract_y
 _atom_site_fract_z
 _atom_site_occupancy
  Li  Li0  1  0.77226300  0.32311900  0.94244500  1
  Li  Li1  1  0.32311900  0.77226300  0.44244500  1
  Li  Li2  1  0.67998800  0.08573300  0.06002500  1
  Li  Li3  1  0.08573300  0.67998800  0.56002500  1
  Li  Li4  1  0.07787200  0.92999300  0.00937600  1
  Li  Li5  1  0.92999300  0.07787200  0.50937600  1
  V  V6  1  0.56305300  0.43389400  0.74714000  1
  V  V7  1  0.43389400  0.56305300  0.24714000  1
  V  V8  1  0.56204900  0.99674900  0.25326700  1
  V  V9  1  0.43509700  0.00159000  0.74870400  1
  V  V10  1  0.99674900  0.56204900  0.75326700  1
  V  V11  1  0.00159000  0.43509700  0.24870400  1
  P  P12  1  0.91716200  0.78403800  0.16290700  1
  P  P13  1  0.78403800  0.91716200  0.66290700  1
  P  P14  1  0.91690300  0.30644400  0.65729500  1
  P  P15  1  0.66233100  0.66566500  0.86662800  1
  P  P16  1  0.66566500  0.66233100  0.36662800  1
  P  P17  1  0.77462900  0.31654200  0.15832200  1
  P  P18  1  0.68826200  0.22243500  0.33777200  1
  P  P19  1  0.30644400  0.91690300  0.15729500  1
  P  P20  1  0.68594600  0.08684100  0.84419100  1
  P  P21  1  0.31654200  0.77462900  0.65832200  1
  P  P22  1  0.22243500  0.68826200  0.83777200  1
  P  P23  1  0.33006400  0.33733700  0.63278200  1
  P  P24  1  0.33733700  0.33006400  0.13278200  1
  P  P25  1  0.08684100  0.68594600  0.34419100  1
  P  P26  1  0.21540600  0.08556700  0.33828100  1
  P  P27  1  0.08556700  0.21540600  0.83828100  1
  O  O28  1  0.01873100  0.75685400  0.43594400  1
  O  O29  1  0.91800100  0.73992000  0.66550600  1
  O  O30  1  0.75685400  0.01873100  0.93594400  1
  O  O31  1  0.73992000  0.91800100  0.16550600  1
  O  O32  1  0.92490600  0.62050600  0.17232400  1
  O  O33  1  0.81315600  0.66253800  0.81827900  1
  O  O34  1  0.92433500  0.46047300  0.67040800  1
  O  O35  1  0.99684600  0.20559600  0.92087600  1
  O  O36  1  0.91695500  0.34471700  0.16491800  1
  O  O37  1  0.66253800  0.81315600  0.31827900  1
  O  O38  1  0.62050600  0.92490600  0.67232400  1
  O  O39  1  0.81313800  0.52152300  0.31886400  1
  O  O40  1  0.66910000  0.66691400  0.96935500  1
  O  O41  1  0.66691400  0.66910000  0.46935500  1
  O  O42  1  0.66729900  0.51291400  0.82953900  1
  O  O43  1  0.46047300  0.92433500  0.17040800  1
  O  O44  1  0.52152300  0.81313800  0.81886400  1
  O  O45  1  0.74065300  0.34875100  0.67257800  1
  O  O46  1  0.79142900  0.20090600  0.24325200  1
  O  O47  1  0.78243100  0.20774900  0.41999400  1
  O  O48  1  0.76801700  0.24092900  0.06957300  1
  O  O49  1  0.62042500  0.47588000  0.17580000  1
  O  O50  1  0.51291400  0.66729900  0.32953900  1
  O  O51  1  0.65847000  0.25883800  0.83513500  1
  O  O52  1  0.47588000  0.62042500  0.67580000  1
  O  O53  1  0.34471700  0.91695500  0.66491800  1
  O  O54  1  0.80369400  0.98947500  0.76032900  1
  O  O55  1  0.80923800  0.99907800  0.58263400  1
  O  O56  1  0.20559600  0.99684600  0.42087600  1
  O  O57  1  0.64738300  0.08706100  0.32950000  1
  O  O58  1  0.53387300  0.38223100  0.32566500  1
  O  O59  1  0.34875100  0.74065300  0.17257800  1
  O  O60  1  0.47728700  0.33826200  0.68029600  1
  O  O61  1  0.38223100  0.53387300  0.82566500  1
  O  O62  1  0.20774900  0.78243100  0.91999400  1
  O  O63  1  0.24092900  0.76801700  0.56957300  1
  O  O64  1  0.20090600  0.79142900  0.74325200  1
  O  O65  1  0.25883800  0.65847000  0.33513500  1
  O  O66  1  0.48809100  0.18294400  0.17237800  1
  O  O67  1  0.52844900  0.08860600  0.82445700  1
  O  O68  1  0.33826200  0.47728700  0.18029600  1
  O  O69  1  0.33984700  0.33816700  0.02991900  1
  O  O70  1  0.33816700  0.33984700  0.52991900  1
  O  O71  1  0.18294400  0.48809100  0.67237800  1
  O  O72  1  0.37725600  0.08246700  0.32573700  1
  O  O73  1  0.33213400  0.18864700  0.67849100  1
  O  O74  1  0.08706100  0.64738300  0.82950000  1
  O  O75  1  0.98947500  0.80369400  0.26032900  1
  O  O76  1  0.99907800  0.80923800  0.08263400  1
  O  O77  1  0.08860600  0.52844900  0.32445700  1
  O  O78  1  0.18864700  0.33213400  0.17849100  1
  O  O79  1  0.08246700  0.37725600  0.82573700  1
  O  O80  1  0.25966700  0.08125600  0.83239000  1
  O  O81  1  0.21707300  0.98433700  0.07112300  1
  O  O82  1  0.19563500  0.00588800  0.24585500  1
  O  O83  1  0.08125600  0.25966700  0.33239000  1
  O  O84  1  0.98433700  0.21707300  0.57112300  1
  O  O85  1  0.00588800  0.19563500  0.74585500  1
