# generated using pymatgen
data_LiFe4(BO3)4
_symmetry_space_group_name_H-M   'P 1'
_cell_length_a   5.22650428
_cell_length_b   9.15915541
_cell_length_c   11.37299138
_cell_angle_alpha   66.21105220
_cell_angle_beta   76.73858693
_cell_angle_gamma   89.13152601
_symmetry_Int_Tables_number   1
_chemical_formula_structural   LiFe4(BO3)4
_chemical_formula_sum   'Li2 Fe8 B8 O24'
_cell_volume   483.05545733
_cell_formula_units_Z   2
loop_
 _symmetry_equiv_pos_site_id
 _symmetry_equiv_pos_as_xyz
  1  'x, y, z'
loop_
 _atom_site_type_symbol
 _atom_site_label
 _atom_site_symmetry_multiplicity
 _atom_site_fract_x
 _atom_site_fract_y
 _atom_site_fract_z
 _atom_site_occupancy
  Li  Li0  1  0.71526946  0.72784372  0.89860843  1
  Li  Li1  1  0.51602740  0.49555066  0.65324500  1
  Fe  Fe2  1  0.98074165  0.64618702  0.37864541  1
  Fe  Fe3  1  0.74003018  0.07396921  0.87676549  1
  Fe  Fe4  1  0.51088997  0.85161002  0.62951527  1
  Fe  Fe5  1  0.76200569  0.43303830  0.12915040  1
  Fe  Fe6  1  0.23562287  0.55138735  0.88294353  1
  Fe  Fe7  1  0.47048132  0.14921886  0.37865020  1
  Fe  Fe8  1  0.03722890  0.33980126  0.62614054  1
  Fe  Fe9  1  0.26578294  0.93615989  0.12871728  1
  B  B10  1  0.96886337  0.31546622  0.37325734  1
  B  B11  1  0.73768736  0.39650240  0.87325517  1
  B  B12  1  0.53667535  0.18699253  0.62803219  1
  B  B13  1  0.76537548  0.10592587  0.12830978  1
  B  B14  1  0.47309023  0.81238720  0.38051150  1
  B  B15  1  0.23235568  0.89297053  0.88014418  1
  B  B16  1  0.01432589  0.68193230  0.62813273  1
  B  B17  1  0.26636448  0.60732572  0.12697138  1
  O  O18  1  0.97069963  0.90380508  0.88218192  1
  O  O19  1  0.89401491  0.28487231  0.84306105  1
  O  O20  1  0.83583252  0.49095711  0.92847011  1
  O  O21  1  0.84990314  0.78984779  0.65147543  1
  O  O22  1  0.93354628  0.57732422  0.57918376  1
  O  O23  1  0.75099201  0.15138931  0.68629348  1
  O  O24  1  0.73389630  0.33090568  0.32947907  1
  O  O25  1  0.50081239  0.41792541  0.84392651  1
  O  O26  1  0.38071736  0.79257533  0.82969074  1
  O  O27  1  0.53299896  0.92223992  0.43019656  1
  O  O28  1  0.62950798  0.69380289  0.38046625  1
  O  O29  1  0.36452707  0.97601052  0.93126935  1
  O  O30  1  0.63298313  0.02275739  0.07695197  1
  O  O31  1  0.41112965  0.31870408  0.61912109  1
  O  O32  1  0.46235422  0.08098783  0.57691306  1
  O  O33  1  0.62360573  0.21098649  0.17480140  1
  O  O34  1  0.53437631  0.60262141  0.10747564  1
  O  O35  1  0.26140212  0.66867969  0.65900021  1
  O  O36  1  0.24523173  0.82926136  0.33273133  1
  O  O37  1  0.03450739  0.42437400  0.41975219  1
  O  O38  1  0.12441081  0.19525239  0.37281095  1
  O  O39  1  0.12609541  0.51395995  0.08853550  1
  O  O40  1  0.13231481  0.71216844  0.17604128  1
  O  O41  1  0.01970894  0.08365230  0.13310530  1
