# generated using pymatgen
data_Li2VF4
_symmetry_space_group_name_H-M   'P 1'
_cell_length_a   6.29673300
_cell_length_b   5.23473600
_cell_length_c   11.10670906
_cell_angle_alpha   62.23432455
_cell_angle_beta   90.00000000
_cell_angle_gamma   90.00000000
_symmetry_Int_Tables_number   1
_chemical_formula_structural   Li2VF4
_chemical_formula_sum   'Li8 V4 F16'
_cell_volume   323.94414017
_cell_formula_units_Z   4
loop_
 _symmetry_equiv_pos_site_id
 _symmetry_equiv_pos_as_xyz
  1  'x, y, z'
loop_
 _atom_site_type_symbol
 _atom_site_label
 _atom_site_symmetry_multiplicity
 _atom_site_fract_x
 _atom_site_fract_y
 _atom_site_fract_z
 _atom_site_occupancy
  Li  Li0  1  0.09254100  0.89103300  0.86107300  1
  Li  Li1  1  0.59254100  0.10896700  0.63892700  1
  Li  Li2  1  0.08773800  0.19351500  0.54140700  1
  Li  Li3  1  0.58773800  0.80648500  0.95859300  1
  Li  Li4  1  0.41226200  0.19351500  0.04140700  1
  Li  Li5  1  0.91226200  0.80648500  0.45859300  1
  Li  Li6  1  0.40745900  0.89103300  0.36107300  1
  Li  Li7  1  0.90745900  0.10896700  0.13892700  1
  V  V8  1  0.67381700  0.49114100  0.25522300  1
  V  V9  1  0.17381700  0.50885900  0.24477700  1
  V  V10  1  0.82618300  0.49114100  0.75522300  1
  V  V11  1  0.32618300  0.50885900  0.74477700  1
  F  F12  1  0.34472300  0.06141900  0.88372500  1
  F  F13  1  0.81954000  0.04011500  0.85263400  1
  F  F14  1  0.92971700  0.53451000  0.37306900  1
  F  F15  1  0.41841700  0.52237000  0.37093300  1
  F  F16  1  0.31954000  0.95988500  0.64736600  1
  F  F17  1  0.84472300  0.93858100  0.61627500  1
  F  F18  1  0.57028300  0.53451000  0.87306900  1
  F  F19  1  0.91841700  0.47763000  0.12906700  1
  F  F20  1  0.08158300  0.52237000  0.87093300  1
  F  F21  1  0.42971700  0.46549000  0.12693100  1
  F  F22  1  0.15527700  0.06141900  0.38372500  1
  F  F23  1  0.68046000  0.04011500  0.35263400  1
  F  F24  1  0.58158300  0.47763000  0.62906700  1
  F  F25  1  0.07028300  0.46549000  0.62693100  1
  F  F26  1  0.18046000  0.95988500  0.14736600  1
  F  F27  1  0.65527700  0.93858100  0.11627500  1
