# generated using pymatgen
data_Li2MnVP2(HO5)2
_symmetry_space_group_name_H-M   'P 1'
_cell_length_a   5.39757800
_cell_length_b   7.46963114
_cell_length_c   10.28388678
_cell_angle_alpha   104.80296882
_cell_angle_beta   100.09124233
_cell_angle_gamma   106.06801883
_symmetry_Int_Tables_number   1
_chemical_formula_structural   Li2MnVP2(HO5)2
_chemical_formula_sum   'Li4 Mn2 V2 P4 H4 O20'
_cell_volume   371.46174562
_cell_formula_units_Z   2
loop_
 _symmetry_equiv_pos_site_id
 _symmetry_equiv_pos_as_xyz
  1  'x, y, z'
loop_
 _atom_site_type_symbol
 _atom_site_label
 _atom_site_symmetry_multiplicity
 _atom_site_fract_x
 _atom_site_fract_y
 _atom_site_fract_z
 _atom_site_occupancy
  Li  Li0  1  0.47593400  0.05179000  0.87390200  1
  Li  Li1  1  0.97470100  0.54073600  0.37248700  1
  Li  Li2  1  0.02529900  0.45926400  0.62751300  1
  Li  Li3  1  0.52406600  0.94821000  0.12609800  1
  Mn  Mn4  1  0.00000000  0.50000000  0.00000000  1
  Mn  Mn5  1  0.50000000  0.50000000  0.50000000  1
  V  V6  1  0.50000000  0.00000000  0.50000000  1
  V  V7  1  0.00000000  0.00000000  0.00000000  1
  P  P8  1  0.47351400  0.60533200  0.84105000  1
  P  P9  1  0.02488200  0.88641100  0.65749700  1
  P  P10  1  0.97511800  0.11358900  0.34250300  1
  P  P11  1  0.52648600  0.39466800  0.15895000  1
  H  H12  1  0.61280200  0.32751100  0.67833700  1
  H  H13  1  0.11758700  0.84538300  0.17908600  1
  H  H14  1  0.88241300  0.15461700  0.82091400  1
  H  H15  1  0.38719800  0.67248900  0.32166300  1
  O  O16  1  0.86757700  0.18741400  0.91701200  1
  O  O17  1  0.36784800  0.71299500  0.41776500  1
  O  O18  1  0.64771600  0.47710100  0.86037000  1
  O  O19  1  0.30914700  0.99800800  0.64669800  1
  O  O20  1  0.17141700  0.00044300  0.37176200  1
  O  O21  1  0.81536300  0.48883600  0.14565500  1
  O  O22  1  0.42289000  0.61356100  0.69143700  1
  O  O23  1  0.60740100  0.82044600  0.94726900  1
  O  O24  1  0.92558600  0.10927600  0.18925700  1
  O  O25  1  0.08231600  0.32576100  0.44303200  1
  O  O26  1  0.91768400  0.67423900  0.55696800  1
  O  O27  1  0.07441400  0.89072400  0.81074300  1
  O  O28  1  0.39259900  0.17955400  0.05273100  1
  O  O29  1  0.57711000  0.38643900  0.30856300  1
  O  O30  1  0.18463700  0.51116400  0.85434500  1
  O  O31  1  0.82858300  0.99955700  0.62823800  1
  O  O32  1  0.69085300  0.00199200  0.35330200  1
  O  O33  1  0.35228400  0.52289900  0.13963000  1
  O  O34  1  0.63215200  0.28700500  0.58223500  1
  O  O35  1  0.13242300  0.81258600  0.08298800  1
