# generated using pymatgen
data_Li2V2(SO4)3
_symmetry_space_group_name_H-M   'P 1'
_cell_length_a   8.78587700
_cell_length_b   8.90339000
_cell_length_c   24.38849100
_cell_angle_alpha   90.00000000
_cell_angle_beta   90.00000000
_cell_angle_gamma   90.00000000
_symmetry_Int_Tables_number   1
_chemical_formula_structural   Li2V2(SO4)3
_chemical_formula_sum   'Li16 V16 S24 O96'
_cell_volume   1907.76750088
_cell_formula_units_Z   8
loop_
 _symmetry_equiv_pos_site_id
 _symmetry_equiv_pos_as_xyz
  1  'x, y, z'
loop_
 _atom_site_type_symbol
 _atom_site_label
 _atom_site_symmetry_multiplicity
 _atom_site_fract_x
 _atom_site_fract_y
 _atom_site_fract_z
 _atom_site_occupancy
  Li  Li0  1  0.03723300  0.62237500  0.29070500  1
  Li  Li1  1  0.03723300  0.87762500  0.79070500  1
  Li  Li2  1  0.14428100  0.93160000  0.00950400  1
  Li  Li3  1  0.14428100  0.56840000  0.50950400  1
  Li  Li4  1  0.35571900  0.06840000  0.50950400  1
  Li  Li5  1  0.35571900  0.43160000  0.00950400  1
  Li  Li6  1  0.46276700  0.12237500  0.29070500  1
  Li  Li7  1  0.46276700  0.37762500  0.79070500  1
  Li  Li8  1  0.53723300  0.62237500  0.20929500  1
  Li  Li9  1  0.53723300  0.87762500  0.70929500  1
  Li  Li10  1  0.64428100  0.56840000  0.99049600  1
  Li  Li11  1  0.64428100  0.93160000  0.49049600  1
  Li  Li12  1  0.85571900  0.43160000  0.49049600  1
  Li  Li13  1  0.85571900  0.06840000  0.99049600  1
  Li  Li14  1  0.96276700  0.12237500  0.20929500  1
  Li  Li15  1  0.96276700  0.37762500  0.70929500  1
  V  V16  1  0.00329200  0.40035500  0.06281600  1
  V  V17  1  0.00329200  0.09964500  0.56281600  1
  V  V18  1  0.99831100  0.79652600  0.17947200  1
  V  V19  1  0.99831100  0.70347400  0.67947200  1
  V  V20  1  0.50168900  0.29652600  0.17947200  1
  V  V21  1  0.50168900  0.20347400  0.67947200  1
  V  V22  1  0.49670800  0.59964500  0.56281600  1
  V  V23  1  0.49670800  0.90035500  0.06281600  1
  V  V24  1  0.50329200  0.40035500  0.43718400  1
  V  V25  1  0.50329200  0.09964500  0.93718400  1
  V  V26  1  0.49831100  0.70347400  0.82052800  1
  V  V27  1  0.49831100  0.79652600  0.32052800  1
  V  V28  1  0.00168900  0.29652600  0.32052800  1
  V  V29  1  0.00168900  0.20347400  0.82052800  1
  V  V30  1  0.99670800  0.90035500  0.43718400  1
  V  V31  1  0.99670800  0.59964500  0.93718400  1
  S  S32  1  0.14410700  0.94670000  0.29952900  1
  S  S33  1  0.14410700  0.55330000  0.79952900  1
  S  S34  1  0.14863200  0.25410300  0.44797200  1
  S  S35  1  0.14863200  0.24589700  0.94797200  1
  S  S36  1  0.19499500  0.09312500  0.11632600  1
  S  S37  1  0.19499500  0.40687500  0.61632600  1
  S  S38  1  0.30500500  0.59312500  0.11632600  1
  S  S39  1  0.30500500  0.90687500  0.61632600  1
  S  S40  1  0.35136800  0.75410300  0.44797200  1
  S  S41  1  0.35136800  0.74589700  0.94797200  1
  S  S42  1  0.35589300  0.44670000  0.29952900  1
  S  S43  1  0.35589300  0.05330000  0.79952900  1
  S  S44  1  0.64410700  0.55330000  0.70047100  1
  S  S45  1  0.64410700  0.94670000  0.20047100  1
  S  S46  1  0.64863200  0.25410300  0.05202800  1
  S  S47  1  0.64863200  0.24589700  0.55202800  1
  S  S48  1  0.69499500  0.09312500  0.38367400  1
  S  S49  1  0.69499500  0.40687500  0.88367400  1
  S  S50  1  0.80500500  0.59312500  0.38367400  1
  S  S51  1  0.80500500  0.90687500  0.88367400  1
  S  S52  1  0.85136800  0.75410300  0.05202800  1
  S  S53  1  0.85136800  0.74589700  0.55202800  1
  S  S54  1  0.85589300  0.44670000  0.20047100  1
  S  S55  1  0.85589300  0.05330000  0.70047100  1
  O  O56  1  0.06524000  0.38948200  0.46566800  1
  O  O57  1  0.06524000  0.11051800  0.96566800  1
  O  O58  1  0.08260700  0.09253500  0.27874800  1
  O  O59  1  0.08260700  0.40746500  0.77874800  1
  O  O60  1  0.08435400  0.11376600  0.47590400  1
  O  O61  1  0.08435400  0.38623400  0.97590400  1
  O  O62  1  0.08897900  0.91323900  0.35479500  1
  O  O63  1  0.08897900  0.58676100  0.85479500  1
  O  O64  1  0.09432800  0.18853100  0.08306500  1
  O  O65  1  0.09432800  0.31146900  0.58306500  1
  O  O66  1  0.09387100  0.82266200  0.26206400  1
  O  O67  1  0.09387100  0.67733800  0.76206400  1
  O  O68  1  0.09801300  0.01034700  0.15691800  1
  O  O69  1  0.09801300  0.48965300  0.65691800  1
  O  O70  1  0.13973400  0.23137300  0.38854600  1
  O  O71  1  0.13973400  0.26862700  0.88854600  1
  O  O72  1  0.18588100  0.45512600  0.29774200  1
  O  O73  1  0.18588100  0.04487400  0.79774200  1
  O  O74  1  0.18964700  0.67881000  0.14634200  1
  O  O75  1  0.18964700  0.82119000  0.64634200  1
  O  O76  1  0.18957600  0.76319200  0.46651300  1
  O  O77  1  0.18957600  0.73680800  0.96651300  1
  O  O78  1  0.23164700  0.01677500  0.57764300  1
  O  O79  1  0.23164700  0.48322500  0.07764300  1
  O  O80  1  0.26835300  0.98322500  0.07764300  1
  O  O81  1  0.26835300  0.51677500  0.57764300  1
  O  O82  1  0.31042400  0.23680800  0.96651300  1
  O  O83  1  0.31042400  0.26319200  0.46651300  1
  O  O84  1  0.31035300  0.17881000  0.14634200  1
  O  O85  1  0.31035300  0.32119000  0.64634200  1
  O  O86  1  0.31411900  0.95512600  0.29774200  1
  O  O87  1  0.31411900  0.54487400  0.79774200  1
  O  O88  1  0.36026600  0.73137300  0.38854600  1
  O  O89  1  0.36026600  0.76862700  0.88854600  1
  O  O90  1  0.40198700  0.51034700  0.15691800  1
  O  O91  1  0.40198700  0.98965300  0.65691800  1
  O  O92  1  0.40612900  0.32266200  0.26206400  1
  O  O93  1  0.40612900  0.17733800  0.76206400  1
  O  O94  1  0.40567200  0.68853100  0.08306500  1
  O  O95  1  0.40567200  0.81146900  0.58306500  1
  O  O96  1  0.41102100  0.08676100  0.85479500  1
  O  O97  1  0.41102100  0.41323900  0.35479500  1
  O  O98  1  0.41564600  0.61376600  0.47590400  1
  O  O99  1  0.41564600  0.88623400  0.97590400  1
  O  O100  1  0.41739300  0.59253500  0.27874800  1
  O  O101  1  0.41739300  0.90746500  0.77874800  1
  O  O102  1  0.43476000  0.61051800  0.96566800  1
  O  O103  1  0.43476000  0.88948200  0.46566800  1
  O  O104  1  0.56524000  0.38948200  0.03433200  1
  O  O105  1  0.56524000  0.11051800  0.53433200  1
  O  O106  1  0.58260700  0.09253500  0.22125200  1
  O  O107  1  0.58260700  0.40746500  0.72125200  1
  O  O108  1  0.58435400  0.11376600  0.02409600  1
  O  O109  1  0.58435400  0.38623400  0.52409600  1
  O  O110  1  0.58897900  0.58676100  0.64520500  1
  O  O111  1  0.58897900  0.91323900  0.14520500  1
  O  O112  1  0.59432800  0.18853100  0.41693500  1
  O  O113  1  0.59432800  0.31146900  0.91693500  1
  O  O114  1  0.59387100  0.82266200  0.23793600  1
  O  O115  1  0.59387100  0.67733800  0.73793600  1
  O  O116  1  0.59801300  0.01034700  0.34308200  1
  O  O117  1  0.59801300  0.48965300  0.84308200  1
  O  O118  1  0.63973400  0.23137300  0.11145400  1
  O  O119  1  0.63973400  0.26862700  0.61145400  1
  O  O120  1  0.68588100  0.45512600  0.20225800  1
  O  O121  1  0.68588100  0.04487400  0.70225800  1
  O  O122  1  0.68964700  0.67881000  0.35365800  1
  O  O123  1  0.68964700  0.82119000  0.85365800  1
  O  O124  1  0.68957600  0.76319200  0.03348700  1
  O  O125  1  0.68957600  0.73680800  0.53348700  1
  O  O126  1  0.73164700  0.48322500  0.42235700  1
  O  O127  1  0.73164700  0.01677500  0.92235700  1
  O  O128  1  0.76835300  0.98322500  0.42235700  1
  O  O129  1  0.76835300  0.51677500  0.92235700  1
  O  O130  1  0.81042400  0.26319200  0.03348700  1
  O  O131  1  0.81042400  0.23680800  0.53348700  1
  O  O132  1  0.81035300  0.17881000  0.35365800  1
  O  O133  1  0.81035300  0.32119000  0.85365800  1
  O  O134  1  0.81411900  0.54487400  0.70225800  1
  O  O135  1  0.81411900  0.95512600  0.20225800  1
  O  O136  1  0.86026600  0.73137300  0.11145400  1
  O  O137  1  0.86026600  0.76862700  0.61145400  1
  O  O138  1  0.90198700  0.51034700  0.34308200  1
  O  O139  1  0.90198700  0.98965300  0.84308200  1
  O  O140  1  0.90612900  0.32266200  0.23793600  1
  O  O141  1  0.90612900  0.17733800  0.73793600  1
  O  O142  1  0.90567200  0.68853100  0.41693500  1
  O  O143  1  0.90567200  0.81146900  0.91693500  1
  O  O144  1  0.91102100  0.41323900  0.14520500  1
  O  O145  1  0.91102100  0.08676100  0.64520500  1
  O  O146  1  0.91564600  0.61376600  0.02409600  1
  O  O147  1  0.91564600  0.88623400  0.52409600  1
  O  O148  1  0.91739300  0.59253500  0.22125200  1
  O  O149  1  0.91739300  0.90746500  0.72125200  1
  O  O150  1  0.93476000  0.61051800  0.53433200  1
  O  O151  1  0.93476000  0.88948200  0.03433200  1
