# generated using pymatgen
data_Li5Fe5Si7O24
_symmetry_space_group_name_H-M   'P 1'
_cell_length_a   7.84870200
_cell_length_b   7.97702760
_cell_length_c   9.31845203
_cell_angle_alpha   89.67185008
_cell_angle_beta   89.95866271
_cell_angle_gamma   89.65740242
_symmetry_Int_Tables_number   1
_chemical_formula_structural   Li5Fe5Si7O24
_chemical_formula_sum   'Li5 Fe5 Si7 O24'
_cell_volume   583.40173937
_cell_formula_units_Z   1
loop_
 _symmetry_equiv_pos_site_id
 _symmetry_equiv_pos_as_xyz
  1  'x, y, z'
loop_
 _atom_site_type_symbol
 _atom_site_label
 _atom_site_symmetry_multiplicity
 _atom_site_fract_x
 _atom_site_fract_y
 _atom_site_fract_z
 _atom_site_occupancy
  Li  Li0  1  0.30115400  0.57725900  0.74587000  1
  Li  Li1  1  0.75601700  0.50026100  0.24884000  1
  Li  Li2  1  0.53770200  0.25454900  0.28006500  1
  Li  Li3  1  0.02731800  0.23885800  0.96604400  1
  Li  Li4  1  0.24343700  0.99860000  0.00460900  1
  Fe  Fe5  1  0.17092600  0.61522100  0.00267800  1
  Fe  Fe6  1  0.41797400  0.43326500  0.50624600  1
  Fe  Fe7  1  0.11555000  0.32210400  0.25889500  1
  Fe  Fe8  1  0.62466700  0.17748700  0.99725100  1
  Fe  Fe9  1  0.91409500  0.06478300  0.73033000  1
  Si  Si10  1  0.07044700  0.91125500  0.25366100  1
  Si  Si11  1  0.66686300  0.87850200  0.25071200  1
  Si  Si12  1  0.36812000  0.84610000  0.48866700  1
  Si  Si13  1  0.87807600  0.65698900  0.75708500  1
  Si  Si14  1  0.59527400  0.58838500  0.00774700  1
  Si  Si15  1  0.83156800  0.38177700  0.50779600  1
  Si  Si16  1  0.33307300  0.12821300  0.74017300  1
  O  O17  1  0.37504300  0.99117300  0.61263500  1
  O  O18  1  0.87008700  0.87285100  0.29602400  1
  O  O19  1  0.54197600  0.85559500  0.38982100  1
  O  O20  1  0.85545300  0.84545300  0.69882100  1
  O  O21  1  0.19411500  0.87764900  0.39279500  1
  O  O22  1  0.13917800  0.80265400  0.11649800  1
  O  O23  1  0.64184500  0.71120000  0.14726200  1
  O  O24  1  0.74025200  0.61608000  0.88638000  1
  O  O25  1  0.36423800  0.65843300  0.56040200  1
  O  O26  1  0.07295700  0.62360900  0.81673800  1
  O  O27  1  0.40585400  0.62122600  0.94125700  1
  O  O28  1  0.83858200  0.52716200  0.62809300  1
  O  O29  1  0.08690500  0.42027400  0.07713000  1
  O  O30  1  0.64095300  0.39083800  0.43150500  1
  O  O31  1  0.94857100  0.43142300  0.36784300  1
  O  O32  1  0.61555100  0.40082700  0.08331300  1
  O  O33  1  0.32730600  0.34282300  0.34125700  1
  O  O34  1  0.36054900  0.32044800  0.67997100  1
  O  O35  1  0.87652000  0.19907600  0.56989500  1
  O  O36  1  0.82361000  0.15356900  0.90194100  1
  O  O37  1  0.09439400  0.10016200  0.18674100  1
  O  O38  1  0.44453300  0.09253100  0.88720700  1
  O  O39  1  0.14182300  0.09904400  0.80884300  1
  O  O40  1  0.61091800  0.05491700  0.17537500  1
