# generated using pymatgen
data_LiFeO2
_symmetry_space_group_name_H-M   'P 1'
_cell_length_a   5.25793700
_cell_length_b   10.78418100
_cell_length_c   13.48683000
_cell_angle_alpha   90.00000000
_cell_angle_beta   90.00000000
_cell_angle_gamma   90.00000000
_symmetry_Int_Tables_number   1
_chemical_formula_structural   LiFeO2
_chemical_formula_sum   'Li16 Fe16 O32'
_cell_volume   764.73757547
_cell_formula_units_Z   16
loop_
 _symmetry_equiv_pos_site_id
 _symmetry_equiv_pos_as_xyz
  1  'x, y, z'
loop_
 _atom_site_type_symbol
 _atom_site_label
 _atom_site_symmetry_multiplicity
 _atom_site_fract_x
 _atom_site_fract_y
 _atom_site_fract_z
 _atom_site_occupancy
  Li  Li0  1  0.20385400  0.78651800  0.30650600  1
  Li  Li1  1  0.20385400  0.71348200  0.80650600  1
  Li  Li2  1  0.31558300  0.45869500  0.43926900  1
  Li  Li3  1  0.31558300  0.04130500  0.93926900  1
  Li  Li4  1  0.18441700  0.95869500  0.43926900  1
  Li  Li5  1  0.18441700  0.54130500  0.93926900  1
  Li  Li6  1  0.29614600  0.28651800  0.30650600  1
  Li  Li7  1  0.29614600  0.21348200  0.80650600  1
  Li  Li8  1  0.70385400  0.78651800  0.19349400  1
  Li  Li9  1  0.70385400  0.71348200  0.69349400  1
  Li  Li10  1  0.81558300  0.45869500  0.06073100  1
  Li  Li11  1  0.81558300  0.04130500  0.56073100  1
  Li  Li12  1  0.68441700  0.95869500  0.06073100  1
  Li  Li13  1  0.68441700  0.54130500  0.56073100  1
  Li  Li14  1  0.79614600  0.28651800  0.19349400  1
  Li  Li15  1  0.79614600  0.21348200  0.69349400  1
  Fe  Fe16  1  0.19796700  0.79114500  0.06161600  1
  Fe  Fe17  1  0.19796700  0.70885500  0.56161600  1
  Fe  Fe18  1  0.15976000  0.03920000  0.18493000  1
  Fe  Fe19  1  0.15976000  0.46080000  0.68493000  1
  Fe  Fe20  1  0.34024000  0.53920000  0.18493000  1
  Fe  Fe21  1  0.34024000  0.96080000  0.68493000  1
  Fe  Fe22  1  0.30203300  0.29114500  0.06161600  1
  Fe  Fe23  1  0.30203300  0.20885500  0.56161600  1
  Fe  Fe24  1  0.69796700  0.79114500  0.43838400  1
  Fe  Fe25  1  0.69796700  0.70885500  0.93838400  1
  Fe  Fe26  1  0.65976000  0.46080000  0.81507000  1
  Fe  Fe27  1  0.65976000  0.03920000  0.31507000  1
  Fe  Fe28  1  0.84024000  0.53920000  0.31507000  1
  Fe  Fe29  1  0.84024000  0.96080000  0.81507000  1
  Fe  Fe30  1  0.80203300  0.29114500  0.43838400  1
  Fe  Fe31  1  0.80203300  0.20885500  0.93838400  1
  O  O32  1  0.16558400  0.28350300  0.44595900  1
  O  O33  1  0.16558400  0.21649700  0.94595900  1
  O  O34  1  0.18072500  0.48057200  0.30290000  1
  O  O35  1  0.18072500  0.01942800  0.80290000  1
  O  O36  1  0.19994600  0.46065800  0.07007700  1
  O  O37  1  0.19994600  0.03934200  0.57007700  1
  O  O38  1  0.32971100  0.71630900  0.17969800  1
  O  O39  1  0.32971100  0.78369100  0.67969800  1
  O  O40  1  0.17028900  0.28369100  0.67969800  1
  O  O41  1  0.17028900  0.21630900  0.17969800  1
  O  O42  1  0.30005400  0.96065800  0.07007700  1
  O  O43  1  0.30005400  0.53934200  0.57007700  1
  O  O44  1  0.31927500  0.51942800  0.80290000  1
  O  O45  1  0.31927500  0.98057200  0.30290000  1
  O  O46  1  0.33441600  0.78350300  0.44595900  1
  O  O47  1  0.33441600  0.71649700  0.94595900  1
  O  O48  1  0.66558400  0.28350300  0.05404100  1
  O  O49  1  0.66558400  0.21649700  0.55404100  1
  O  O50  1  0.68072500  0.01942800  0.69710000  1
  O  O51  1  0.68072500  0.48057200  0.19710000  1
  O  O52  1  0.69994600  0.03934200  0.92992300  1
  O  O53  1  0.69994600  0.46065800  0.42992300  1
  O  O54  1  0.82971100  0.71630900  0.32030200  1
  O  O55  1  0.82971100  0.78369100  0.82030200  1
  O  O56  1  0.67028900  0.21630900  0.32030200  1
  O  O57  1  0.67028900  0.28369100  0.82030200  1
  O  O58  1  0.80005400  0.53934200  0.92992300  1
  O  O59  1  0.80005400  0.96065800  0.42992300  1
  O  O60  1  0.81927500  0.51942800  0.69710000  1
  O  O61  1  0.81927500  0.98057200  0.19710000  1
  O  O62  1  0.83441600  0.71649700  0.55404100  1
  O  O63  1  0.83441600  0.78350300  0.05404100  1
