# generated using pymatgen
data_Li5Co4(Si3O10)2
_symmetry_space_group_name_H-M   'P 1'
_cell_length_a   5.34127200
_cell_length_b   5.41299181
_cell_length_c   17.05125609
_cell_angle_alpha   94.03529946
_cell_angle_beta   90.19008400
_cell_angle_gamma   119.25346027
_symmetry_Int_Tables_number   1
_chemical_formula_structural   Li5Co4(Si3O10)2
_chemical_formula_sum   'Li5 Co4 Si6 O20'
_cell_volume   428.64840586
_cell_formula_units_Z   1
loop_
 _symmetry_equiv_pos_site_id
 _symmetry_equiv_pos_as_xyz
  1  'x, y, z'
loop_
 _atom_site_type_symbol
 _atom_site_label
 _atom_site_symmetry_multiplicity
 _atom_site_fract_x
 _atom_site_fract_y
 _atom_site_fract_z
 _atom_site_occupancy
  Li  Li0  1  0.15780100  0.59395400  0.76126100  1
  Li  Li1  1  0.17203200  0.50814400  0.44624200  1
  Li  Li2  1  0.81940900  0.49418000  0.55177700  1
  Li  Li3  1  0.83691900  0.39463500  0.24957100  1
  Li  Li4  1  0.66396700  0.49872100  0.04595200  1
  Co  Co5  1  0.17311000  0.17565400  0.58141700  1
  Co  Co6  1  0.01323100  0.18561000  0.08267300  1
  Co  Co7  1  0.00936100  0.82494800  0.91191000  1
  Co  Co8  1  0.81274800  0.80867000  0.40877800  1
  Si  Si9  1  0.86207500  0.00171500  0.74877700  1
  Si  Si10  1  0.51050100  0.84188600  0.60201500  1
  Si  Si11  1  0.70029200  0.17341700  0.90196500  1
  Si  Si12  1  0.32864400  0.83994100  0.09829500  1
  Si  Si13  1  0.47133500  0.15421700  0.40381400  1
  Si  Si14  1  0.14212400  0.99905100  0.24992200  1
  O  O15  1  0.09984900  0.21549800  0.69164600  1
  O  O16  1  0.04596400  0.18742100  0.19868700  1
  O  O17  1  0.54357700  0.82108600  0.69860400  1
  O  O18  1  0.79603200  0.85499200  0.56119800  1
  O  O19  1  0.21906000  0.55680300  0.56687200  1
  O  O20  1  0.37642100  0.90177300  0.89730800  1
  O  O21  1  0.91139700  0.09934700  0.95448400  1
  O  O22  1  0.32912800  0.54373200  0.06950500  1
  O  O23  1  0.47447000  0.85907200  0.41308800  1
  O  O24  1  0.83348400  0.22787100  0.81354500  1
  O  O25  1  0.23977300  0.80910700  0.19012100  1
  O  O26  1  0.49606800  0.13397500  0.58851200  1
  O  O27  1  0.71252700  0.46715700  0.93552400  1
  O  O28  1  0.06965600  0.86263000  0.05165600  1
  O  O29  1  0.63260200  0.13181100  0.08866900  1
  O  O30  1  0.77099100  0.43442600  0.43740300  1
  O  O31  1  0.19283500  0.14890300  0.44948600  1
  O  O32  1  0.43600000  0.20020700  0.30811300  1
  O  O33  1  0.93545400  0.79262500  0.79510000  1
  O  O34  1  0.89208200  0.76611100  0.29816200  1
