# generated using pymatgen
data_Li2Fe2Si3O10
_symmetry_space_group_name_H-M   'P 1'
_cell_length_a   12.53859128
_cell_length_b   9.81775811
_cell_length_c   9.18317579
_cell_angle_alpha   82.51063775
_cell_angle_beta   50.92518392
_cell_angle_gamma   46.56417833
_symmetry_Int_Tables_number   1
_chemical_formula_structural   Li2Fe2Si3O10
_chemical_formula_sum   'Li4 Fe4 Si6 O20'
_cell_volume   537.35517747
_cell_formula_units_Z   2
loop_
 _symmetry_equiv_pos_site_id
 _symmetry_equiv_pos_as_xyz
  1  'x, y, z'
loop_
 _atom_site_type_symbol
 _atom_site_label
 _atom_site_symmetry_multiplicity
 _atom_site_fract_x
 _atom_site_fract_y
 _atom_site_fract_z
 _atom_site_occupancy
  Li  Li0  1  0.32053800  0.08033400  0.50443700  1
  Li  Li1  1  0.16966600  0.92946200  0.15531000  1
  Li  Li2  1  0.74556300  0.15531000  0.92946200  1
  Li  Li3  1  0.09469000  0.50443700  0.08033400  1
  Fe  Fe4  1  0.48393500  0.97253600  0.78694600  1
  Fe  Fe5  1  0.27746400  0.76606500  0.49341700  1
  Fe  Fe6  1  0.46305400  0.49341700  0.76606500  1
  Fe  Fe7  1  0.75658300  0.78694600  0.97253600  1
  Si  Si8  1  0.28055700  0.01238600  0.26318300  1
  Si  Si9  1  0.23761400  0.96944300  0.80612600  1
  Si  Si10  1  0.75008100  0.24991900  0.24991900  1
  Si  Si11  1  0.98681700  0.80612600  0.96944300  1
  Si  Si12  1  0.44387400  0.26318300  0.01238600  1
  Si  Si13  1  0.00008100  0.49991900  0.49991900  1
  O  O14  1  0.77988500  0.68499400  0.56325000  1
  O  O15  1  0.33168600  0.05389000  0.72836700  1
  O  O16  1  0.50313300  0.87069600  0.18888400  1
  O  O17  1  0.09350600  0.26651300  0.45670100  1
  O  O18  1  0.30503100  0.01076100  0.06713000  1
  O  O19  1  0.23923900  0.94496900  0.63292200  1
  O  O20  1  0.98348700  0.15649400  0.06672100  1
  O  O21  1  0.37930400  0.74686700  0.81271200  1
  O  O22  1  0.19611000  0.91831400  0.36394300  1
  O  O23  1  0.56500600  0.47011500  0.27812800  1
  O  O24  1  0.68675000  0.27812800  0.47011500  1
  O  O25  1  0.52163300  0.36394300  0.91831400  1
  O  O26  1  0.06111600  0.81271200  0.74686700  1
  O  O27  1  0.79329900  0.06672100  0.15649400  1
  O  O28  1  0.18287000  0.63292200  0.94496900  1
  O  O29  1  0.61707800  0.06713000  0.01076100  1
  O  O30  1  0.18327900  0.45670100  0.26651300  1
  O  O31  1  0.43728800  0.18888400  0.87069600  1
  O  O32  1  0.88605700  0.72836700  0.05389000  1
  O  O33  1  0.97187200  0.56325000  0.68499400  1
