# generated using pymatgen
data_Li7V3P8O29
_symmetry_space_group_name_H-M   'P 1'
_cell_length_a   9.84788500
_cell_length_b   9.87414557
_cell_length_c   13.92639764
_cell_angle_alpha   89.89899030
_cell_angle_beta   90.37759443
_cell_angle_gamma   119.82227476
_symmetry_Int_Tables_number   1
_chemical_formula_structural   Li7V3P8O29
_chemical_formula_sum   'Li14 V6 P16 O58'
_cell_volume   1174.83482045
_cell_formula_units_Z   2
loop_
 _symmetry_equiv_pos_site_id
 _symmetry_equiv_pos_as_xyz
  1  'x, y, z'
loop_
 _atom_site_type_symbol
 _atom_site_label
 _atom_site_symmetry_multiplicity
 _atom_site_fract_x
 _atom_site_fract_y
 _atom_site_fract_z
 _atom_site_occupancy
  Li  Li0  1  0.67704600  0.90881300  0.55989700  1
  Li  Li1  1  0.23635800  0.32646800  0.56308800  1
  Li  Li2  1  0.33996800  0.67302800  0.38227300  1
  Li  Li3  1  0.33482800  0.66385600  0.88501500  1
  Li  Li4  1  0.08331000  0.30937700  0.06149300  1
  Li  Li5  1  0.22297700  0.90833900  0.06739800  1
  Li  Li6  1  0.90352000  0.23482100  0.43986700  1
  Li  Li7  1  0.09017400  0.76232900  0.56342200  1
  Li  Li8  1  0.78163200  0.08019700  0.93878200  1
  Li  Li9  1  0.90989900  0.68799400  0.93963800  1
  Li  Li10  1  0.66127900  0.32745800  0.11628300  1
  Li  Li11  1  0.76573100  0.66347700  0.43797000  1
  Li  Li12  1  0.31429400  0.22370000  0.94190200  1
  Li  Li13  1  0.05755400  0.01702800  0.48826200  1
  V  V14  1  0.99540200  0.43287300  0.25054900  1
  V  V15  1  0.00211400  0.56945500  0.74919600  1
  V  V16  1  0.56331400  0.99978800  0.74672700  1
  V  V17  1  0.43456200  0.00353600  0.25237900  1
  V  V18  1  0.56765500  0.56839500  0.24847400  1
  V  V19  1  0.43828100  0.43596600  0.75008300  1
  P  P20  1  0.68233400  0.77249100  0.83897200  1
  P  P21  1  0.68509200  0.91188200  0.34142600  1
  P  P22  1  0.22756700  0.31735600  0.34587200  1
  P  P23  1  0.32807900  0.66391600  0.12696000  1
  P  P24  1  0.33485800  0.66551800  0.62486700  1
  P  P25  1  0.09326800  0.32319300  0.84198400  1
  P  P26  1  0.91320900  0.23051800  0.65746900  1
  P  P27  1  0.23351900  0.91128400  0.84699500  1
  P  P28  1  0.76718400  0.09063900  0.15490800  1
  P  P29  1  0.09032000  0.77294500  0.34234200  1
  P  P30  1  0.90478900  0.67661700  0.15739700  1
  P  P31  1  0.66791000  0.33797700  0.37396100  1
  P  P32  1  0.66716600  0.33270700  0.87276200  1
  P  P33  1  0.76819800  0.68512400  0.65404500  1
  P  P34  1  0.30520300  0.08198700  0.66028100  1
  P  P35  1  0.32019500  0.23311100  0.15932700  1
  O  O36  1  0.76311300  0.76533900  0.56248000  1
  O  O37  1  0.67283100  0.74961200  0.34153300  1
  O  O38  1  0.75673200  0.00493300  0.06474900  1
  O  O39  1  0.66116900  0.91833900  0.84010400  1
  O  O40  1  0.51461800  0.62777700  0.82451000  1
  O  O41  1  0.46798200  0.65272700  0.17584800  1
  O  O42  1  0.37709700  0.47901400  0.33689700  1
  O  O43  1  0.24498000  0.25384700  0.06997000  1
  O  O44  1  0.25475300  0.33219300  0.84308000  1
  O  O45  1  0.48949700  0.81053400  0.66497700  1
  O  O46  1  0.51889900  0.88789400  0.33311200  1
  O  O47  1  0.32717800  0.51146300  0.66637700  1
  O  O48  1  0.32607600  0.65006300  0.01972300  1
  O  O49  1  0.34077900  0.66186900  0.51688100  1
  O  O50  1  0.17518700  0.51830500  0.16898700  1
  O  O51  1  0.37297500  0.88352800  0.82442300  1
  O  O52  1  0.33296000  0.81495500  0.16081300  1
  O  O53  1  0.08093400  0.33655000  0.34226400  1
  O  O54  1  0.00208900  0.21256300  0.75124200  1
  O  O55  1  0.00078700  0.22634100  0.56909300  1
  O  O56  1  0.99953900  0.24595600  0.93079300  1
  O  O57  1  0.12217100  0.48986100  0.82617500  1
  O  O58  1  0.19134200  0.67675000  0.65920500  1
  O  O59  1  0.91969800  0.25249600  0.15939900  1
  O  O60  1  0.10392400  0.62298600  0.33240100  1
  O  O61  1  0.25116500  0.91639800  0.34053100  1
  O  O62  1  0.78329400  0.99897900  0.24741400  1
  O  O63  1  0.77487700  0.00510400  0.42944200  1
  O  O64  1  0.19602900  0.98772600  0.58007100  1
  O  O65  1  0.74811500  0.08240600  0.65962000  1
  O  O66  1  0.90442200  0.37851200  0.66922600  1
  O  O67  1  0.08241500  0.75299400  0.84565300  1
  O  O68  1  0.81991400  0.33680500  0.33067600  1
  O  O69  1  0.88216700  0.50974900  0.17252400  1
  O  O70  1  0.00030300  0.75238900  0.06912500  1
  O  O71  1  0.99967700  0.77117400  0.43107000  1
  O  O72  1  0.99660400  0.78167400  0.24944500  1
  O  O73  1  0.91505800  0.66966600  0.65829700  1
  O  O74  1  0.66278000  0.18259500  0.82914200  1
  O  O75  1  0.62807900  0.11801500  0.17227500  1
  O  O76  1  0.81461600  0.48156300  0.83922500  1
  O  O77  1  0.65485200  0.32235300  0.98030700  1
  O  O78  1  0.68934700  0.35581600  0.48017900  1
  O  O79  1  0.67127800  0.48997200  0.33036700  1
  O  O80  1  0.45857100  0.07443700  0.66577700  1
  O  O81  1  0.52354300  0.19539600  0.33380200  1
  O  O82  1  0.74345300  0.66253600  0.15803200  1
  O  O83  1  0.78111600  0.79592300  0.74224100  1
  O  O84  1  0.76870200  0.76185200  0.92333200  1
  O  O85  1  0.61743600  0.52693100  0.66974000  1
  O  O86  1  0.51738100  0.33602200  0.83053600  1
  O  O87  1  0.48803500  0.37341200  0.17521400  1
  O  O88  1  0.32718900  0.08218200  0.15687700  1
  O  O89  1  0.25649900  0.00186900  0.93831600  1
  O  O90  1  0.21824200  0.01166300  0.76118100  1
  O  O91  1  0.33737800  0.25090200  0.65896400  1
  O  O92  1  0.21921400  0.22636900  0.43486200  1
  O  O93  1  0.21517300  0.21878500  0.25106700  1
