# generated using pymatgen
data_Li7VGeO8
_symmetry_space_group_name_H-M   'P 1'
_cell_length_a   6.40301900
_cell_length_b   5.41043100
_cell_length_c   10.85519912
_cell_angle_alpha   89.08106506
_cell_angle_beta   90.00000000
_cell_angle_gamma   90.00000000
_symmetry_Int_Tables_number   1
_chemical_formula_structural   Li7VGeO8
_chemical_formula_sum   'Li14 V2 Ge2 O16'
_cell_volume   376.00930121
_cell_formula_units_Z   2
loop_
 _symmetry_equiv_pos_site_id
 _symmetry_equiv_pos_as_xyz
  1  'x, y, z'
loop_
 _atom_site_type_symbol
 _atom_site_label
 _atom_site_symmetry_multiplicity
 _atom_site_fract_x
 _atom_site_fract_y
 _atom_site_fract_z
 _atom_site_occupancy
  Li  Li0  1  0.50000000  0.67518300  0.92301400  1
  Li  Li1  1  0.75174100  0.31276200  0.82443000  1
  Li  Li2  1  0.24825900  0.31276200  0.82443000  1
  Li  Li3  1  0.26953300  0.83294900  0.66198100  1
  Li  Li4  1  0.73046700  0.83294900  0.66198100  1
  Li  Li5  1  0.00000000  0.20110300  0.58411400  1
  Li  Li6  1  0.50000000  0.82822300  0.43193800  1
  Li  Li7  1  0.74759500  0.19156400  0.34885800  1
  Li  Li8  1  0.25240500  0.19156400  0.34885800  1
  Li  Li9  1  0.29582600  0.58489800  0.18025900  1
  Li  Li10  1  0.70417400  0.58489800  0.18025900  1
  Li  Li11  1  0.80964400  0.93196800  0.16611100  1
  Li  Li12  1  0.19035600  0.93196800  0.16611100  1
  Li  Li13  1  0.00000000  0.34356200  0.06541800  1
  V  V14  1  0.00000000  0.82765800  0.91568900  1
  V  V15  1  0.00000000  0.67525700  0.40841700  1
  Ge  Ge16  1  0.50000000  0.32087500  0.58667500  1
  Ge  Ge17  1  0.50000000  0.16276500  0.07464500  1
  O  O18  1  0.50000000  0.30361600  0.93035700  1
  O  O19  1  0.00000000  0.14997700  0.91443500  1
  O  O20  1  0.78153800  0.71476000  0.84343200  1
  O  O21  1  0.21846200  0.71476000  0.84343200  1
  O  O22  1  0.27177300  0.20197800  0.66069900  1
  O  O23  1  0.72822700  0.20197800  0.66069900  1
  O  O24  1  0.50000000  0.65099900  0.58649200  1
  O  O25  1  0.00000000  0.79391600  0.55272700  1
  O  O26  1  0.50000000  0.19951600  0.43423600  1
  O  O27  1  0.00000000  0.35267000  0.40932900  1
  O  O28  1  0.77820500  0.78357200  0.32558900  1
  O  O29  1  0.22179500  0.78357200  0.32558900  1
  O  O30  1  0.26887400  0.25402000  0.15828300  1
  O  O31  1  0.73112600  0.25402000  0.15828300  1
  O  O32  1  0.50000000  0.82840300  0.09340100  1
  O  O33  1  0.00000000  0.72213600  0.07623000  1
