# generated using pymatgen
data_LiVP3HO10
_symmetry_space_group_name_H-M   'P 1'
_cell_length_a   4.98739700
_cell_length_b   8.69685800
_cell_length_c   11.82642409
_cell_angle_alpha   53.83747255
_cell_angle_beta   90.00000000
_cell_angle_gamma   90.00000000
_symmetry_Int_Tables_number   1
_chemical_formula_structural   LiVP3HO10
_chemical_formula_sum   'Li2 V2 P6 H2 O20'
_cell_volume   414.14238891
_cell_formula_units_Z   2
loop_
 _symmetry_equiv_pos_site_id
 _symmetry_equiv_pos_as_xyz
  1  'x, y, z'
loop_
 _atom_site_type_symbol
 _atom_site_label
 _atom_site_symmetry_multiplicity
 _atom_site_fract_x
 _atom_site_fract_y
 _atom_site_fract_z
 _atom_site_occupancy
  Li  Li0  1  0.60403400  0.50000000  0.75000000  1
  Li  Li1  1  0.39596600  0.50000000  0.25000000  1
  V  V2  1  0.50000000  0.00000000  0.00000000  1
  V  V3  1  0.50000000  0.00000000  0.50000000  1
  P  P4  1  0.00797700  0.73457800  0.53052500  1
  P  P5  1  0.76201200  0.00000000  0.25000000  1
  P  P6  1  0.00797700  0.26542200  0.96947500  1
  P  P7  1  0.99202300  0.73457800  0.03052500  1
  P  P8  1  0.23798800  0.00000000  0.75000000  1
  P  P9  1  0.99202300  0.26542200  0.46947500  1
  H  H10  1  0.00000000  0.50000000  0.50000000  1
  H  H11  1  0.00000000  0.50000000  0.00000000  1
  O  O12  1  0.81825800  0.18899400  0.91265000  1
  O  O13  1  0.30522800  0.24295100  0.94947200  1
  O  O14  1  0.93581800  0.52872700  0.58649200  1
  O  O15  1  0.93581800  0.47127300  0.91350800  1
  O  O16  1  0.59600800  0.91450600  0.19259800  1
  O  O17  1  0.96785500  0.84931200  0.36286200  1
  O  O18  1  0.30522800  0.75704900  0.55052800  1
  O  O19  1  0.81825800  0.81100600  0.58735000  1
  O  O20  1  0.96785500  0.15068800  0.13713800  1
  O  O21  1  0.59600800  0.08549400  0.30740200  1
  O  O22  1  0.40399200  0.91450600  0.69259800  1
  O  O23  1  0.03214500  0.84931200  0.86286200  1
  O  O24  1  0.18174200  0.18899400  0.41265000  1
  O  O25  1  0.69477200  0.24295100  0.44947200  1
  O  O26  1  0.03214500  0.15068800  0.63713800  1
  O  O27  1  0.40399200  0.08549400  0.80740200  1
  O  O28  1  0.06418200  0.52872700  0.08649200  1
  O  O29  1  0.06418200  0.47127300  0.41350800  1
  O  O30  1  0.69477200  0.75704900  0.05052800  1
  O  O31  1  0.18174200  0.81100600  0.08735000  1
