# generated using pymatgen
data_Li2Mn(Si2O5)2
_symmetry_space_group_name_H-M   'P 1'
_cell_length_a   6.97530200
_cell_length_b   7.63861504
_cell_length_c   9.76755277
_cell_angle_alpha   68.48045890
_cell_angle_beta   77.98108134
_cell_angle_gamma   62.87129938
_symmetry_Int_Tables_number   1
_chemical_formula_structural   Li2Mn(Si2O5)2
_chemical_formula_sum   'Li4 Mn2 Si8 O20'
_cell_volume   430.36112752
_cell_formula_units_Z   2
loop_
 _symmetry_equiv_pos_site_id
 _symmetry_equiv_pos_as_xyz
  1  'x, y, z'
loop_
 _atom_site_type_symbol
 _atom_site_label
 _atom_site_symmetry_multiplicity
 _atom_site_fract_x
 _atom_site_fract_y
 _atom_site_fract_z
 _atom_site_occupancy
  Li  Li0  1  0.86085300  0.75123500  0.05541800  1
  Li  Li1  1  0.46726100  0.31351900  0.57652500  1
  Li  Li2  1  0.53273900  0.68648100  0.42347500  1
  Li  Li3  1  0.13914700  0.24876500  0.94458200  1
  Mn  Mn4  1  0.06292800  0.69251000  0.42292500  1
  Mn  Mn5  1  0.93707200  0.30749000  0.57707500  1
  Si  Si6  1  0.70098000  0.05122800  0.18562400  1
  Si  Si7  1  0.25148600  0.35789200  0.25541400  1
  Si  Si8  1  0.80503100  0.38566200  0.23824100  1
  Si  Si9  1  0.38403100  0.72281300  0.14193900  1
  Si  Si10  1  0.61596900  0.27718700  0.85806100  1
  Si  Si11  1  0.19496900  0.61433800  0.76175900  1
  Si  Si12  1  0.74851400  0.64210800  0.74458600  1
  Si  Si13  1  0.29902000  0.94877200  0.81437600  1
  O  O14  1  0.69937600  0.07581600  0.00824400  1
  O  O15  1  0.30616600  0.55046600  0.13835000  1
  O  O16  1  0.45163000  0.13598800  0.25275400  1
  O  O17  1  0.04803500  0.37764100  0.18014100  1
  O  O18  1  0.80992900  0.19626500  0.19467400  1
  O  O19  1  0.65308200  0.61368100  0.12223500  1
  O  O20  1  0.19446300  0.37323100  0.42096700  1
  O  O21  1  0.83679000  0.80846900  0.25909700  1
  O  O22  1  0.69646300  0.21551200  0.71032300  1
  O  O23  1  0.26848300  0.61820700  0.59384800  1
  O  O24  1  0.73151700  0.38179300  0.40615200  1
  O  O25  1  0.30353700  0.78448800  0.28967700  1
  O  O26  1  0.16321000  0.19153100  0.74090300  1
  O  O27  1  0.80553700  0.62676900  0.57903300  1
  O  O28  1  0.34691800  0.38631900  0.87776500  1
  O  O29  1  0.19007100  0.80373500  0.80532600  1
  O  O30  1  0.95196500  0.62235900  0.81985900  1
  O  O31  1  0.54837000  0.86401200  0.74724600  1
  O  O32  1  0.69383400  0.44953400  0.86165000  1
  O  O33  1  0.30062400  0.92418400  0.99175600  1
