# generated using pymatgen
data_LiMn2PO6
_symmetry_space_group_name_H-M   'P 1'
_cell_length_a   5.18252400
_cell_length_b   7.77773600
_cell_length_c   11.84115200
_cell_angle_alpha   90.00000000
_cell_angle_beta   90.00000000
_cell_angle_gamma   90.00000000
_symmetry_Int_Tables_number   1
_chemical_formula_structural   LiMn2PO6
_chemical_formula_sum   'Li4 Mn8 P4 O24'
_cell_volume   477.29674844
_cell_formula_units_Z   4
loop_
 _symmetry_equiv_pos_site_id
 _symmetry_equiv_pos_as_xyz
  1  'x, y, z'
loop_
 _atom_site_type_symbol
 _atom_site_label
 _atom_site_symmetry_multiplicity
 _atom_site_fract_x
 _atom_site_fract_y
 _atom_site_fract_z
 _atom_site_occupancy
  Li  Li0  1  0.25000000  0.01604000  0.06046200  1
  Li  Li1  1  0.75000000  0.51604000  0.43953800  1
  Li  Li2  1  0.25000000  0.48396000  0.56046200  1
  Li  Li3  1  0.75000000  0.98396000  0.93953800  1
  Mn  Mn4  1  0.75000000  0.28975600  0.07515600  1
  Mn  Mn5  1  0.75000000  0.68754900  0.09004400  1
  Mn  Mn6  1  0.25000000  0.18754900  0.40995600  1
  Mn  Mn7  1  0.25000000  0.78975600  0.42484400  1
  Mn  Mn8  1  0.75000000  0.21024400  0.57515600  1
  Mn  Mn9  1  0.75000000  0.81245100  0.59004400  1
  Mn  Mn10  1  0.25000000  0.31245100  0.90995600  1
  Mn  Mn11  1  0.25000000  0.71024400  0.92484400  1
  P  P12  1  0.25000000  0.47040900  0.20473900  1
  P  P13  1  0.75000000  0.97040900  0.29526100  1
  P  P14  1  0.25000000  0.02959100  0.70473900  1
  P  P15  1  0.75000000  0.52959100  0.79526100  1
  O  O16  1  0.49939900  0.82032500  0.01517600  1
  O  O17  1  0.00060100  0.82032500  0.01517600  1
  O  O18  1  0.00367900  0.48633400  0.12414500  1
  O  O19  1  0.49632100  0.48633400  0.12414500  1
  O  O20  1  0.75000000  0.11500100  0.21006600  1
  O  O21  1  0.25000000  0.28764700  0.25004600  1
  O  O22  1  0.75000000  0.78764700  0.24995400  1
  O  O23  1  0.25000000  0.61500100  0.28993400  1
  O  O24  1  0.50367900  0.98633400  0.37585500  1
  O  O25  1  0.99632100  0.98633400  0.37585500  1
  O  O26  1  0.99939900  0.32032500  0.48482400  1
  O  O27  1  0.50060100  0.32032500  0.48482400  1
  O  O28  1  0.49939900  0.67967500  0.51517600  1
  O  O29  1  0.00060100  0.67967500  0.51517600  1
  O  O30  1  0.00367900  0.01366600  0.62414500  1
  O  O31  1  0.49632100  0.01366600  0.62414500  1
  O  O32  1  0.75000000  0.38499900  0.71006600  1
  O  O33  1  0.25000000  0.21235300  0.75004600  1
  O  O34  1  0.75000000  0.71235300  0.74995400  1
  O  O35  1  0.25000000  0.88499900  0.78993400  1
  O  O36  1  0.50367900  0.51366600  0.87585500  1
  O  O37  1  0.99632100  0.51366600  0.87585500  1
  O  O38  1  0.99939900  0.17967500  0.98482400  1
  O  O39  1  0.50060100  0.17967500  0.98482400  1
