# generated using pymatgen
data_Li5Mn8(BO3)8
_symmetry_space_group_name_H-M   'P 1'
_cell_length_a   5.29476400
_cell_length_b   9.15421161
_cell_length_c   10.36862319
_cell_angle_alpha   91.91562130
_cell_angle_beta   90.85269152
_cell_angle_gamma   90.06344702
_symmetry_Int_Tables_number   1
_chemical_formula_structural   Li5Mn8(BO3)8
_chemical_formula_sum   'Li5 Mn8 B8 O24'
_cell_volume   502.22371122
_cell_formula_units_Z   1
loop_
 _symmetry_equiv_pos_site_id
 _symmetry_equiv_pos_as_xyz
  1  'x, y, z'
loop_
 _atom_site_type_symbol
 _atom_site_label
 _atom_site_symmetry_multiplicity
 _atom_site_fract_x
 _atom_site_fract_y
 _atom_site_fract_z
 _atom_site_occupancy
  Li  Li0  1  0.93847100  0.92361900  0.32045100  1
  Li  Li1  1  0.90087700  0.92837100  0.85487200  1
  Li  Li2  1  0.58573500  0.57981100  0.59916300  1
  Li  Li3  1  0.44107700  0.41225100  0.33877700  1
  Li  Li4  1  0.41303800  0.42937800  0.82776700  1
  Mn  Mn5  1  0.92885400  0.26521800  0.37290500  1
  Mn  Mn6  1  0.93124500  0.58836100  0.86628900  1
  Mn  Mn7  1  0.54987200  0.91235400  0.11916800  1
  Mn  Mn8  1  0.56947100  0.23187600  0.61750800  1
  Mn  Mn9  1  0.42411700  0.74255100  0.36425500  1
  Mn  Mn10  1  0.40555100  0.09362800  0.87239000  1
  Mn  Mn11  1  0.09839200  0.40589700  0.11100800  1
  Mn  Mn12  1  0.08053900  0.77220800  0.61669700  1
  B  B13  1  0.91969800  0.58527100  0.38082600  1
  B  B14  1  0.91077300  0.25315700  0.86506600  1
  B  B15  1  0.61008800  0.24319200  0.13797000  1
  B  B16  1  0.56668100  0.91162000  0.63749600  1
  B  B17  1  0.41694500  0.08401100  0.36237500  1
  B  B18  1  0.41873900  0.75053200  0.87638900  1
  B  B19  1  0.07669000  0.74133700  0.11540600  1
  B  B20  1  0.07592100  0.42651800  0.62225300  1
  O  O21  1  0.92399000  0.85572100  0.14116300  1
  O  O22  1  0.92941900  0.31754500  0.55976200  1
  O  O23  1  0.98628100  0.61189600  0.05159800  1
  O  O24  1  0.93949500  0.54896000  0.67389800  1
  O  O25  1  0.86144900  0.24311700  0.18702800  1
  O  O26  1  0.81467100  0.91217300  0.66986800  1
  O  O27  1  0.66524500  0.56544100  0.39717200  1
  O  O28  1  0.65975800  0.26924600  0.82394900  1
  O  O29  1  0.55224500  0.96122200  0.31215100  1
  O  O30  1  0.53916100  0.87782200  0.92826700  1
  O  O31  1  0.55950100  0.20524600  0.40846700  1
  O  O32  1  0.54986200  0.62449000  0.85485900  1
  O  O33  1  0.46237400  0.36096000  0.15509300  1
  O  O34  1  0.45678000  0.78784600  0.57461600  1
  O  O35  1  0.52595700  0.11784600  0.07055500  1
  O  O36  1  0.41592600  0.03178000  0.67029800  1
  O  O37  1  0.33185300  0.74074700  0.15622300  1
  O  O38  1  0.33142000  0.42031500  0.63356200  1
  O  O39  1  0.16204600  0.08488100  0.36823400  1
  O  O40  1  0.16298800  0.76332700  0.84168700  1
  O  O41  1  0.07435100  0.46812800  0.33907200  1
  O  O42  1  0.05465600  0.38180500  0.89584700  1
  O  O43  1  0.03350900  0.72037400  0.40929000  1
  O  O44  1  0.02341500  0.12324100  0.88102400  1
