# generated using pymatgen
data_Li3V3P8O29
_symmetry_space_group_name_H-M   'P 1'
_cell_length_a   9.78216615
_cell_length_b   9.78216615
_cell_length_c   14.30669653
_cell_angle_alpha   89.36013152
_cell_angle_beta   89.36013152
_cell_angle_gamma   60.16441470
_symmetry_Int_Tables_number   1
_chemical_formula_structural   Li3V3P8O29
_chemical_formula_sum   'Li6 V6 P16 O58'
_cell_volume   1187.46558479
_cell_formula_units_Z   2
loop_
 _symmetry_equiv_pos_site_id
 _symmetry_equiv_pos_as_xyz
  1  'x, y, z'
loop_
 _atom_site_type_symbol
 _atom_site_label
 _atom_site_symmetry_multiplicity
 _atom_site_fract_x
 _atom_site_fract_y
 _atom_site_fract_z
 _atom_site_occupancy
  Li  Li0  1  0.30837000  0.91911500  0.43892000  1
  Li  Li1  1  0.91911500  0.30837000  0.93892000  1
  Li  Li2  1  0.08432700  0.69488200  0.05794300  1
  Li  Li3  1  0.22625200  0.68176100  0.55772400  1
  Li  Li4  1  0.69488200  0.08432700  0.55794400  1
  Li  Li5  1  0.68176100  0.22625200  0.05772400  1
  V  V6  1  0.56912900  0.43486700  0.25409800  1
  V  V7  1  0.42963200  0.00572200  0.24158000  1
  V  V8  1  0.00572200  0.42963200  0.74158000  1
  V  V9  1  0.99700200  0.56605200  0.25521700  1
  V  V10  1  0.56605200  0.99700200  0.75521700  1
  V  V11  1  0.43486700  0.56912900  0.75409800  1
  P  P12  1  0.31699100  0.76944500  0.16009400  1
  P  P13  1  0.31996400  0.91255600  0.65801500  1
  P  P14  1  0.76944500  0.31699100  0.66009400  1
  P  P15  1  0.65961900  0.67307400  0.36920400  1
  P  P16  1  0.67307400  0.65961900  0.86920400  1
  P  P17  1  0.91255600  0.31996400  0.15801500  1
  P  P18  1  0.08476800  0.22577100  0.33963700  1
  P  P19  1  0.77367600  0.91261300  0.16264100  1
  P  P20  1  0.22577100  0.08476800  0.83963700  1
  P  P21  1  0.91261300  0.77367600  0.66264100  1
  P  P22  1  0.08535800  0.67779400  0.84208200  1
  P  P23  1  0.33330000  0.34153300  0.13054600  1
  P  P24  1  0.34153300  0.33330000  0.63054600  1
  P  P25  1  0.23044000  0.68084600  0.34102200  1
  P  P26  1  0.67779400  0.08535800  0.34208200  1
  P  P27  1  0.68084600  0.23044000  0.84102200  1
  O  O28  1  0.24053300  0.75275700  0.43058800  1
  O  O29  1  0.33998100  0.74420700  0.66618800  1
  O  O30  1  0.20611800  0.00778500  0.74375300  1
  O  O31  1  0.23251500  0.99854600  0.92517300  1
  O  O32  1  0.47653300  0.61656000  0.17740000  1
  O  O33  1  0.34577500  0.91203800  0.16497700  1
  O  O34  1  0.52304100  0.66032300  0.82407200  1
  O  O35  1  0.61656000  0.47653300  0.67740000  1
  O  O36  1  0.75275700  0.24053300  0.93058800  1
  O  O37  1  0.74420700  0.33998100  0.16618800  1
  O  O38  1  0.51144100  0.82114700  0.32861500  1
  O  O39  1  0.66032300  0.52304100  0.32407200  1
  O  O40  1  0.47939200  0.90411300  0.68131800  1
  O  O41  1  0.65932600  0.66571600  0.47245400  1
  O  O42  1  0.66571600  0.65932600  0.97245400  1
  O  O43  1  0.61863100  0.90446300  0.17628200  1
  O  O44  1  0.82114700  0.51144100  0.82861500  1
  O  O45  1  0.66799200  0.81208200  0.82518600  1
  O  O46  1  0.91203800  0.34577500  0.66497700  1
  O  O47  1  0.00778500  0.20611800  0.24375300  1
  O  O48  1  0.98439500  0.25558900  0.06602900  1
  O  O49  1  0.99854600  0.23251500  0.42517300  1
  O  O50  1  0.90411300  0.47939200  0.18131800  1
  O  O51  1  0.81208200  0.66799200  0.32518600  1
  O  O52  1  0.74302700  0.91656500  0.66215500  1
  O  O53  1  0.08212000  0.25594800  0.83327500  1
  O  O54  1  0.90446300  0.61863100  0.67628200  1
  O  O55  1  0.25558900  0.98439500  0.56602900  1
  O  O56  1  0.74215800  0.01508100  0.43409200  1
  O  O57  1  0.09379400  0.38141400  0.32105200  1
  O  O58  1  0.91656500  0.74302700  0.16215500  1
  O  O59  1  0.79644300  0.98421200  0.25895000  1
  O  O60  1  0.25594800  0.08212000  0.33327500  1
  O  O61  1  0.18925600  0.33360800  0.67448700  1
  O  O62  1  0.09308200  0.51956500  0.81856200  1
  O  O63  1  0.01508100  0.74215800  0.93409200  1
  O  O64  1  0.00922200  0.76655900  0.58060700  1
  O  O65  1  0.98421200  0.79644300  0.75895000  1
  O  O66  1  0.08631300  0.65692900  0.33302600  1
  O  O67  1  0.33360800  0.18925600  0.17448700  1
  O  O68  1  0.38141400  0.09379400  0.82105200  1
  O  O69  1  0.18242900  0.48781400  0.17181500  1
  O  O70  1  0.33605900  0.33709600  0.52669300  1
  O  O71  1  0.33709600  0.33605900  0.02669300  1
  O  O72  1  0.51956500  0.09308200  0.31856200  1
  O  O73  1  0.33721900  0.48403200  0.67042400  1
  O  O74  1  0.48781400  0.18242900  0.67181500  1
  O  O75  1  0.25415200  0.65380500  0.82737000  1
  O  O76  1  0.21441900  0.79455800  0.25574600  1
  O  O77  1  0.22949900  0.76468600  0.07831700  1
  O  O78  1  0.38198800  0.51980100  0.32309100  1
  O  O79  1  0.48403200  0.33721900  0.17042400  1
  O  O80  1  0.65692900  0.08631300  0.83302600  1
  O  O81  1  0.51980100  0.38198800  0.82309100  1
  O  O82  1  0.76655900  0.00922200  0.08060700  1
  O  O83  1  0.65380500  0.25415200  0.32737000  1
  O  O84  1  0.76468600  0.22949900  0.57831700  1
  O  O85  1  0.79455800  0.21441900  0.75574600  1
