# generated using pymatgen
data_Li2Mn3(BO3)3
_symmetry_space_group_name_H-M   'P 1'
_cell_length_a   9.01831935
_cell_length_b   7.87540498
_cell_length_c   6.14577812
_cell_angle_alpha   80.68503725
_cell_angle_beta   76.74435924
_cell_angle_gamma   114.06981196
_symmetry_Int_Tables_number   1
_chemical_formula_structural   Li2Mn3(BO3)3
_chemical_formula_sum   'Li4 Mn6 B6 O18'
_cell_volume   371.55850517
_cell_formula_units_Z   2
loop_
 _symmetry_equiv_pos_site_id
 _symmetry_equiv_pos_as_xyz
  1  'x, y, z'
loop_
 _atom_site_type_symbol
 _atom_site_label
 _atom_site_symmetry_multiplicity
 _atom_site_fract_x
 _atom_site_fract_y
 _atom_site_fract_z
 _atom_site_occupancy
  Li  Li0  1  0.61981392  0.16182285  0.16672244  1
  Li  Li1  1  0.04685208  0.17151015  0.49994456  1
  Li  Li2  1  0.27062882  0.48545707  0.83042870  1
  Li  Li3  1  0.39603818  0.84787593  0.83623730  1
  Mn  Mn4  1  0.25700792  0.11851061  0.12090409  1
  Mn  Mn5  1  0.40965908  0.21482239  0.54576291  1
  Mn  Mn6  1  0.04764367  0.53452147  0.21668086  1
  Mn  Mn7  1  0.92971768  0.49005131  0.75653511  1
  Mn  Mn8  1  0.61902233  0.79881153  0.44998514  1
  Mn  Mn9  1  0.73694832  0.84328169  0.91013189  1
  B  B10  1  0.93421867  0.14105297  0.10253319  1
  B  B11  1  0.73244833  0.19228003  0.56413381  1
  B  B12  1  0.38759297  0.53033981  0.20941520  1
  B  B13  1  0.59631985  0.46334534  0.81187174  1
  B  B14  1  0.27907403  0.80299419  0.45725180  1
  B  B15  1  0.07034615  0.86998866  0.85479526  1
  O  O16  1  0.00442365  0.06396062  0.23745703  1
  O  O17  1  0.76214067  0.01937301  0.11328118  1
  O  O18  1  0.65375786  0.99706399  0.68754777  1
  O  O19  1  0.30116308  0.33684478  0.34426982  1
  O  O20  1  0.66224335  0.26937338  0.42920997  1
  O  O21  1  0.31204397  0.61147818  0.08547089  1
  O  O22  1  0.90452633  0.31395999  0.55338582  1
  O  O23  1  0.55938262  0.64024242  0.19435929  1
  O  O24  1  0.98216096  0.66760423  0.95313312  1
  O  O25  1  0.01290814  0.33626901  0.97911923  1
  O  O26  1  0.42752749  0.36507169  0.81490938  1
  O  O27  1  0.10728338  0.69309058  0.47230671  1
  O  O28  1  0.67574104  0.36515837  0.89688127  1
  O  O29  1  0.35462203  0.72185482  0.58119611  1
  O  O30  1  0.68450504  0.66572977  0.71353388  1
  O  O31  1  0.36550292  0.99648822  0.32239718  1
  O  O32  1  0.23913951  0.96826131  0.85175762  1
  O  O33  1  0.99092496  0.96817463  0.76978473  1
