# generated using pymatgen
data_Li7Mn4(P2O7)4
_symmetry_space_group_name_H-M   'P 1'
_cell_length_a   9.89214500
_cell_length_b   9.91238304
_cell_length_c   11.34728881
_cell_angle_alpha   77.12015837
_cell_angle_beta   89.83783166
_cell_angle_gamma   89.71684887
_symmetry_Int_Tables_number   1
_chemical_formula_structural   Li7Mn4(P2O7)4
_chemical_formula_sum   'Li14 Mn8 P16 O56'
_cell_volume   1084.64562953
_cell_formula_units_Z   2
loop_
 _symmetry_equiv_pos_site_id
 _symmetry_equiv_pos_as_xyz
  1  'x, y, z'
loop_
 _atom_site_type_symbol
 _atom_site_label
 _atom_site_symmetry_multiplicity
 _atom_site_fract_x
 _atom_site_fract_y
 _atom_site_fract_z
 _atom_site_occupancy
  Li  Li0  1  0.71992400  0.11062000  0.55400900  1
  Li  Li1  1  0.42435400  0.16796300  0.45666300  1
  Li  Li2  1  0.11125800  0.08784000  0.97219400  1
  Li  Li3  1  0.90855500  0.34320200  0.04133800  1
  Li  Li4  1  0.60631900  0.41339200  0.02791600  1
  Li  Li5  1  0.91969500  0.33688100  0.54286100  1
  Li  Li6  1  0.22131200  0.38866200  0.44850600  1
  Li  Li7  1  0.06904800  0.66330000  0.45989400  1
  Li  Li8  1  0.39119800  0.58427500  0.96959500  1
  Li  Li9  1  0.58852500  0.85029500  0.04286500  1
  Li  Li10  1  0.09232900  0.65420400  0.95606600  1
  Li  Li11  1  0.89382500  0.91507300  0.02828700  1
  Li  Li12  1  0.58356300  0.82329000  0.54803800  1
  Li  Li13  1  0.27939700  0.88825700  0.44659300  1
  Mn  Mn14  1  0.91945800  0.19991400  0.32671800  1
  Mn  Mn15  1  0.21714000  0.25577500  0.17354400  1
  Mn  Mn16  1  0.71193000  0.24470800  0.82473000  1
  Mn  Mn17  1  0.41912000  0.29471000  0.68275200  1
  Mn  Mn18  1  0.58119000  0.70061900  0.33022700  1
  Mn  Mn19  1  0.28568300  0.75851000  0.17423000  1
  Mn  Mn20  1  0.78362500  0.74168500  0.82137600  1
  Mn  Mn21  1  0.07741200  0.79669800  0.67386600  1
  P  P22  1  0.45416800  0.02486900  0.24262600  1
  P  P23  1  0.70619900  0.11948400  0.10808900  1
  P  P24  1  0.93182700  0.05957400  0.75694000  1
  P  P25  1  0.15003000  0.12320000  0.57388800  1
  P  P26  1  0.64756400  0.37738500  0.42522100  1
  P  P27  1  0.43299000  0.44114000  0.24395200  1
  P  P28  1  0.04691600  0.52527000  0.23947100  1
  P  P29  1  0.20568100  0.38129400  0.89124800  1
  P  P30  1  0.79526500  0.61884300  0.10801600  1
  P  P31  1  0.95202300  0.47427000  0.75729800  1
  P  P32  1  0.56880700  0.56001100  0.75637800  1
  P  P33  1  0.35101700  0.62143000  0.57408400  1
  P  P34  1  0.84952500  0.87629700  0.42709100  1
  P  P35  1  0.06734100  0.94055200  0.24437300  1
  P  P36  1  0.29373300  0.88206900  0.89127400  1
  P  P37  1  0.54668700  0.97456500  0.75818300  1
  O  O38  1  0.41965700  0.02067700  0.37394300  1
  O  O39  1  0.83703000  0.02517400  0.44564400  1
  O  O40  1  0.08587900  0.08641600  0.26990400  1
  O  O41  1  0.35568800  0.10937600  0.15192700  1
  O  O42  1  0.60025100  0.09747200  0.22136400  1
  O  O43  1  0.83141900  0.17947100  0.15669200  1
  O  O44  1  0.64534100  0.22844500  0.00197700  1
  O  O45  1  0.26941200  0.01761500  0.92341100  1
  O  O46  1  0.07947700  0.11300000  0.70447100  1
  O  O47  1  0.93551500  0.06430400  0.88934000  1
  O  O48  1  0.53983100  0.12492900  0.77924000  1
  O  O49  1  0.28987600  0.18807600  0.58170000  1
  O  O50  1  0.82614800  0.16432000  0.68841900  1
  O  O51  1  0.06349300  0.22456500  0.48183900  1
  O  O52  1  0.56350900  0.27536700  0.51808900  1
  O  O53  1  0.32648000  0.33738200  0.31180700  1
  O  O54  1  0.78951300  0.31523000  0.41806900  1
  O  O55  1  0.03617900  0.37616300  0.21455200  1
  O  O56  1  0.57956800  0.38202700  0.29374800  1
  O  O57  1  0.43423400  0.43912500  0.11096100  1
  O  O58  1  0.77699300  0.47992100  0.07591200  1
  O  O59  1  0.13424300  0.27756200  0.99792800  1
  O  O60  1  0.32885000  0.32242600  0.84167100  1
  O  O61  1  0.10037900  0.40568700  0.77847500  1
  O  O62  1  0.58857600  0.41556200  0.72865400  1
  O  O63  1  0.85947800  0.38621800  0.85478700  1
  O  O64  1  0.08593800  0.52308700  0.36911200  1
  O  O65  1  0.34275900  0.47330500  0.55569900  1
  O  O66  1  0.65156200  0.52622800  0.44022200  1
  O  O67  1  0.92029000  0.47526700  0.62821000  1
  O  O68  1  0.13721600  0.61581300  0.14318900  1
  O  O69  1  0.41630200  0.58668400  0.27169200  1
  O  O70  1  0.89802700  0.59469700  0.22328700  1
  O  O71  1  0.67037900  0.68318900  0.15353000  1
  O  O72  1  0.86460400  0.72309700  0.00096300  1
  O  O73  1  0.22262800  0.51889400  0.92643600  1
  O  O74  1  0.56283400  0.55980000  0.89024600  1
  O  O75  1  0.41996900  0.61371300  0.70423800  1
  O  O76  1  0.96253600  0.62331600  0.78514500  1
  O  O77  1  0.21002500  0.68545700  0.58082900  1
  O  O78  1  0.67017200  0.66976900  0.69228600  1
  O  O79  1  0.43611100  0.72364500  0.48127900  1
  O  O80  1  0.94131100  0.78314400  0.51776000  1
  O  O81  1  0.17370400  0.83644600  0.31262600  1
  O  O82  1  0.70772700  0.81942300  0.41296000  1
  O  O83  1  0.46969000  0.87478700  0.21803600  1
  O  O84  1  0.06472900  0.93604900  0.11175500  1
  O  O85  1  0.91977300  0.88659100  0.29520600  1
  O  O86  1  0.72431600  0.98072100  0.07558000  1
  O  O87  1  0.36619400  0.77629700  0.99638600  1
  O  O88  1  0.17264300  0.81293900  0.84406000  1
  O  O89  1  0.39892200  0.90719000  0.77591400  1
  O  O90  1  0.63950500  0.88584100  0.85467500  1
  O  O91  1  0.91252100  0.91406800  0.73165100  1
  O  O92  1  0.16164000  0.97575600  0.55458300  1
  O  O93  1  0.58508100  0.97382800  0.62839200  1
