# generated using pymatgen
data_Li2AlCoO4
_symmetry_space_group_name_H-M   'P 1'
_cell_length_a   5.89323100
_cell_length_b   5.31354600
_cell_length_c   10.76638216
_cell_angle_alpha   72.95062461
_cell_angle_beta   90.00000000
_cell_angle_gamma   90.00000000
_symmetry_Int_Tables_number   1
_chemical_formula_structural   Li2AlCoO4
_chemical_formula_sum   'Li8 Al4 Co4 O16'
_cell_volume   322.32160555
_cell_formula_units_Z   4
loop_
 _symmetry_equiv_pos_site_id
 _symmetry_equiv_pos_as_xyz
  1  'x, y, z'
loop_
 _atom_site_type_symbol
 _atom_site_label
 _atom_site_symmetry_multiplicity
 _atom_site_fract_x
 _atom_site_fract_y
 _atom_site_fract_z
 _atom_site_occupancy
  Li  Li0  1  0.33484500  0.92592400  0.19391400  1
  Li  Li1  1  0.16515500  0.92592400  0.69391400  1
  Li  Li2  1  0.15826600  0.70174100  0.43173600  1
  Li  Li3  1  0.34173400  0.70174100  0.93173600  1
  Li  Li4  1  0.65826600  0.29825900  0.06826400  1
  Li  Li5  1  0.84173400  0.29825900  0.56826400  1
  Li  Li6  1  0.83484500  0.07407600  0.30608600  1
  Li  Li7  1  0.66515500  0.07407600  0.80608600  1
  Al  Al8  1  0.83391100  0.82073800  0.06091400  1
  Al  Al9  1  0.66608900  0.82073800  0.56091400  1
  Al  Al10  1  0.33391100  0.17926200  0.43908600  1
  Al  Al11  1  0.16608900  0.17926200  0.93908600  1
  Co  Co12  1  0.17544000  0.42577100  0.18147800  1
  Co  Co13  1  0.67544000  0.57422900  0.31852200  1
  Co  Co14  1  0.32456000  0.42577100  0.68147800  1
  Co  Co15  1  0.82456000  0.57422900  0.81852200  1
  O  O16  1  0.67020700  0.91939500  0.17968100  1
  O  O17  1  0.82979300  0.91939500  0.67968100  1
  O  O18  1  0.14402000  0.82581400  0.05880400  1
  O  O19  1  0.35598000  0.82581400  0.55880400  1
  O  O20  1  0.81334600  0.69018200  0.44245100  1
  O  O21  1  0.34527600  0.53139400  0.31597600  1
  O  O22  1  0.68665400  0.69018200  0.94245100  1
  O  O23  1  0.15472400  0.53139400  0.81597600  1
  O  O24  1  0.84527600  0.46860600  0.18402400  1
  O  O25  1  0.31334600  0.30981800  0.05754900  1
  O  O26  1  0.65472400  0.46860600  0.68402400  1
  O  O27  1  0.18665400  0.30981800  0.55754900  1
  O  O28  1  0.64402000  0.17418600  0.44119600  1
  O  O29  1  0.85598000  0.17418600  0.94119600  1
  O  O30  1  0.17020700  0.08060500  0.32031900  1
  O  O31  1  0.32979300  0.08060500  0.82031900  1
