# generated using pymatgen
data_Li5Mn6(BO3)6
_symmetry_space_group_name_H-M   'P 1'
_cell_length_a   5.22387700
_cell_length_b   5.93879420
_cell_length_c   13.45885944
_cell_angle_alpha   97.19129335
_cell_angle_beta   91.56257256
_cell_angle_gamma   112.77156502
_symmetry_Int_Tables_number   1
_chemical_formula_structural   Li5Mn6(BO3)6
_chemical_formula_sum   'Li5 Mn6 B6 O18'
_cell_volume   380.65697121
_cell_formula_units_Z   1
loop_
 _symmetry_equiv_pos_site_id
 _symmetry_equiv_pos_as_xyz
  1  'x, y, z'
loop_
 _atom_site_type_symbol
 _atom_site_label
 _atom_site_symmetry_multiplicity
 _atom_site_fract_x
 _atom_site_fract_y
 _atom_site_fract_z
 _atom_site_occupancy
  Li  Li0  1  0.47529000  0.77867000  0.45803200  1
  Li  Li1  1  0.14144900  0.11445100  0.79148600  1
  Li  Li2  1  0.85078100  0.86031600  0.20707100  1
  Li  Li3  1  0.52624500  0.21884600  0.54006000  1
  Li  Li4  1  0.19061400  0.55505100  0.87388600  1
  Mn  Mn5  1  0.33831200  0.48512100  0.24844400  1
  Mn  Mn6  1  0.01281200  0.82474900  0.58576900  1
  Mn  Mn7  1  0.67765800  0.16609800  0.92325800  1
  Mn  Mn8  1  0.30808500  0.82755100  0.07889600  1
  Mn  Mn9  1  0.99057600  0.17619700  0.41522600  1
  Mn  Mn10  1  0.65582200  0.50756200  0.74963200  1
  B  B11  1  0.24413700  0.28648500  0.02270700  1
  B  B12  1  0.90555200  0.62177300  0.36154500  1
  B  B13  1  0.57662000  0.95512100  0.69444600  1
  B  B14  1  0.42129700  0.04389500  0.30458800  1
  B  B15  1  0.09347800  0.38048600  0.64147800  1
  B  B16  1  0.76194100  0.71739600  0.97586800  1
  O  O17  1  0.42214600  0.16866600  0.04471200  1
  O  O18  1  0.13069300  0.55135100  0.37831500  1
  O  O19  1  0.75878000  0.55910000  0.27021600  1
  O  O20  1  0.44105400  0.89653300  0.59940000  1
  O  O21  1  0.23524400  0.47301800  0.09553100  1
  O  O22  1  0.84487800  0.76778500  0.44005600  1
  O  O23  1  0.50404500  0.09199800  0.77244900  1
  O  O24  1  0.79920000  0.88502700  0.71312300  1
  O  O25  1  0.91401900  0.80031100  0.06713200  1
  O  O26  1  0.10401500  0.23331900  0.92957100  1
  O  O27  1  0.19889500  0.11484200  0.28642900  1
  O  O28  1  0.48436100  0.89957600  0.22646200  1
  O  O29  1  0.17019600  0.24642100  0.56471300  1
  O  O30  1  0.82188200  0.56650500  0.90063100  1
  O  O31  1  0.55886100  0.10084800  0.39929800  1
  O  O32  1  0.22898100  0.44148000  0.73703300  1
  O  O33  1  0.86754000  0.44600100  0.62320100  1
  O  O34  1  0.53527700  0.78396600  0.95733900  1
