# generated using pymatgen
data_Li4TiS4
_symmetry_space_group_name_H-M   'P 1'
_cell_length_a   6.89287481
_cell_length_b   6.89287481
_cell_length_c   6.89287481
_cell_angle_alpha   129.60651053
_cell_angle_beta   129.60651053
_cell_angle_gamma   74.03661051
_symmetry_Int_Tables_number   1
_chemical_formula_structural   Li4TiS4
_chemical_formula_sum   'Li4 Ti1 S4'
_cell_volume   189.56989906
_cell_formula_units_Z   1
loop_
 _symmetry_equiv_pos_site_id
 _symmetry_equiv_pos_as_xyz
  1  'x, y, z'
loop_
 _atom_site_type_symbol
 _atom_site_label
 _atom_site_symmetry_multiplicity
 _atom_site_fract_x
 _atom_site_fract_y
 _atom_site_fract_z
 _atom_site_occupancy
  Li  Li0  1  0.50000000  0.00000000  0.50000000  1
  Li  Li1  1  0.00000000  0.50000000  0.50000000  1
  Li  Li2  1  0.72523400  0.72523400  0.00000000  1
  Li  Li3  1  0.27476600  0.27476600  0.00000000  1
  Ti  Ti4  1  0.00000000  0.00000000  0.00000000  1
  S  S5  1  0.34135700  0.34135700  0.44462600  1
  S  S6  1  0.65864300  0.10327000  0.00000000  1
  S  S7  1  0.89673000  0.89673000  0.55537400  1
  S  S8  1  0.10327000  0.65864300  0.00000000  1
