# generated using pymatgen
data_Li5Mn6(BO3)6
_symmetry_space_group_name_H-M   'P 1'
_cell_length_a   6.35332900
_cell_length_b   8.23458293
_cell_length_c   8.79728216
_cell_angle_alpha   116.95134189
_cell_angle_beta   111.05254766
_cell_angle_gamma   89.78507552
_symmetry_Int_Tables_number   1
_chemical_formula_structural   Li5Mn6(BO3)6
_chemical_formula_sum   'Li5 Mn6 B6 O18'
_cell_volume   375.81254932
_cell_formula_units_Z   1
loop_
 _symmetry_equiv_pos_site_id
 _symmetry_equiv_pos_as_xyz
  1  'x, y, z'
loop_
 _atom_site_type_symbol
 _atom_site_label
 _atom_site_symmetry_multiplicity
 _atom_site_fract_x
 _atom_site_fract_y
 _atom_site_fract_z
 _atom_site_occupancy
  Li  Li0  1  0.10933000  0.70541400  0.72444000  1
  Li  Li1  1  0.39472200  0.01462200  0.29967700  1
  Li  Li2  1  0.90502100  0.01541700  0.30082300  1
  Li  Li3  1  0.23575800  0.28573300  0.98091400  1
  Li  Li4  1  0.74635200  0.28447100  0.98146300  1
  Mn  Mn5  1  0.32813000  0.97765100  0.64291300  1
  Mn  Mn6  1  0.81431400  0.97819900  0.63122700  1
  Mn  Mn7  1  0.50090100  0.64233400  0.99829600  1
  Mn  Mn8  1  0.99472500  0.63635200  0.99770200  1
  Mn  Mn9  1  0.18920800  0.39271100  0.37680400  1
  Mn  Mn10  1  0.67637800  0.37073700  0.36029500  1
  B  B11  1  0.40881600  0.66632200  0.32852800  1
  B  B12  1  0.92376800  0.66535900  0.33266700  1
  B  B13  1  0.00962600  0.01293700  0.00951000  1
  B  B14  1  0.50071700  0.00970800  0.00983300  1
  B  B15  1  0.08826800  0.32438300  0.66170200  1
  B  B16  1  0.56971000  0.32126300  0.65946900  1
  O  O17  1  0.35184900  0.73752000  0.20663800  1
  O  O18  1  0.85554000  0.73998500  0.21447200  1
  O  O19  1  0.51250500  0.77504500  0.51701400  1
  O  O20  1  0.01672600  0.77317100  0.52413500  1
  O  O21  1  0.42822200  0.82211000  0.89366000  1
  O  O22  1  0.97129200  0.82330000  0.90440600  1
  O  O23  1  0.35643900  0.46956700  0.25361500  1
  O  O24  1  0.89881700  0.46951900  0.25628600  1
  O  O25  1  0.03781500  0.41237400  0.54975100  1
  O  O26  1  0.49858900  0.39390900  0.53630200  1
  O  O27  1  0.67231500  0.43807600  0.84963800  1
  O  O28  1  0.17680600  0.43861600  0.85190100  1
  O  O29  1  0.60384900  0.08389800  0.20353400  1
  O  O30  1  0.09951600  0.10116200  0.20502400  1
  O  O31  1  0.04517900  0.13417800  0.58064700  1
  O  O32  1  0.53955200  0.13116200  0.58436300  1
  O  O33  1  0.96268400  0.12181800  0.92111600  1
  O  O34  1  0.46837400  0.13097400  0.93485800  1
