# generated using pymatgen
data_Li2Mn3(SiO4)2
_symmetry_space_group_name_H-M   'P 1'
_cell_length_a   5.12390800
_cell_length_b   9.06894913
_cell_length_c   13.64535774
_cell_angle_alpha   108.41403674
_cell_angle_beta   100.36917759
_cell_angle_gamma   90.49256679
_symmetry_Int_Tables_number   1
_chemical_formula_structural   Li2Mn3(SiO4)2
_chemical_formula_sum   'Li6 Mn9 Si6 O24'
_cell_volume   590.33075270
_cell_formula_units_Z   3
loop_
 _symmetry_equiv_pos_site_id
 _symmetry_equiv_pos_as_xyz
  1  'x, y, z'
loop_
 _atom_site_type_symbol
 _atom_site_label
 _atom_site_symmetry_multiplicity
 _atom_site_fract_x
 _atom_site_fract_y
 _atom_site_fract_z
 _atom_site_occupancy
  Li  Li0  1  0.43997400  0.35976400  0.76701800  1
  Li  Li1  1  0.39026600  0.62780600  0.68581900  1
  Li  Li2  1  0.25678800  0.52794300  0.46705100  1
  Li  Li3  1  0.48555500  0.09645200  0.85324800  1
  Li  Li4  1  0.72499000  0.34152500  0.36010000  1
  Li  Li5  1  0.60732200  0.22409200  0.09766700  1
  Mn  Mn6  1  0.01261400  0.00982300  0.99905300  1
  Mn  Mn7  1  0.28140600  0.21808000  0.49868400  1
  Mn  Mn8  1  0.19902900  0.45101900  0.18680900  1
  Mn  Mn9  1  0.28335500  0.85861100  0.34220200  1
  Mn  Mn10  1  0.93221900  0.60046200  0.83796900  1
  Mn  Mn11  1  0.59696700  0.52168200  0.03049800  1
  Mn  Mn12  1  0.68099700  0.92870900  0.19004700  1
  Mn  Mn13  1  0.92791800  0.12549000  0.68933200  1
  Mn  Mn14  1  0.84993200  0.71456100  0.53560200  1
  Si  Si15  1  0.03037400  0.31064800  0.93318800  1
  Si  Si16  1  0.49145300  0.79760600  0.93841900  1
  Si  Si17  1  0.18707800  0.15661400  0.25388800  1
  Si  Si18  1  0.38254400  0.93173500  0.59833100  1
  Si  Si19  1  0.83218100  0.41580800  0.59683200  1
  Si  Si20  1  0.75992800  0.63414200  0.28273400  1
  O  O21  1  0.04586400  0.54802400  0.59076000  1
  O  O22  1  0.02300000  0.27228100  0.60800300  1
  O  O23  1  0.18035500  0.24167900  0.83248800  1
  O  O24  1  0.07541700  0.91879200  0.61629100  1
  O  O25  1  0.37941700  0.97294600  0.96118700  1
  O  O26  1  0.06082800  0.23536100  0.35939000  1
  O  O27  1  0.32105400  0.65225700  0.84051400  1
  O  O28  1  0.38751800  0.99469500  0.49661000  1
  O  O29  1  0.39142800  0.27776800  0.23082600  1
  O  O30  1  0.48157400  0.75221600  0.57284100  1
  O  O31  1  0.55320700  0.06579300  0.70374700  1
  O  O32  1  0.36605700  0.00989800  0.26384700  1
  O  O33  1  0.28032500  0.37881000  0.03527000  1
  O  O34  1  0.43851500  0.64734800  0.27971100  1
  O  O35  1  0.78573200  0.81008800  0.90755100  1
  O  O36  1  0.58870000  0.36959300  0.49224300  1
  O  O37  1  0.67926900  0.47412500  0.69861700  1
  O  O38  1  0.83431900  0.44980600  0.91709200  1
  O  O39  1  0.83045300  0.18815500  0.95605300  1
  O  O40  1  0.52807000  0.75170100  0.04888500  1
  O  O41  1  0.90922100  0.58513000  0.38363800  1
  O  O42  1  0.80001900  0.49471700  0.17324700  1
  O  O43  1  0.87896400  0.80401200  0.28346300  1
  O  O44  1  0.92490700  0.09013100  0.15403500  1
