# generated using pymatgen
data_Li4V3P8O29
_symmetry_space_group_name_H-M   'P 1'
_cell_length_a   9.80551922
_cell_length_b   9.78632608
_cell_length_c   14.24359860
_cell_angle_alpha   90.22072135
_cell_angle_beta   90.12774430
_cell_angle_gamma   60.02628222
_symmetry_Int_Tables_number   1
_chemical_formula_structural   Li4V3P8O29
_chemical_formula_sum   'Li8 V6 P16 O58'
_cell_volume   1184.00174485
_cell_formula_units_Z   2
loop_
 _symmetry_equiv_pos_site_id
 _symmetry_equiv_pos_as_xyz
  1  'x, y, z'
loop_
 _atom_site_type_symbol
 _atom_site_label
 _atom_site_symmetry_multiplicity
 _atom_site_fract_x
 _atom_site_fract_y
 _atom_site_fract_z
 _atom_site_occupancy
  Li  Li0  1  0.76875900  0.91497500  0.56098700  1
  Li  Li1  1  0.91687400  0.30750400  0.56105300  1
  Li  Li2  1  0.76953200  0.32692200  0.05695500  1
  Li  Li3  1  0.33235300  0.89800700  0.05582500  1
  Li  Li4  1  0.32310400  0.77142800  0.56213800  1
  Li  Li5  1  0.32581200  0.33701900  0.10453300  1
  Li  Li6  1  0.08845900  0.68375500  0.43964800  1
  Li  Li7  1  0.97286800  0.97558300  0.99862900  1
  V  V8  1  0.57408300  0.42980300  0.25288200  1
  V  V9  1  0.43333600  0.56560200  0.75044900  1
  V  V10  1  0.56357600  0.00237700  0.75334300  1
  V  V11  1  0.43212100  0.99748700  0.25183400  1
  V  V12  1  0.99545700  0.57250900  0.24521200  1
  V  V13  1  0.00185200  0.43400200  0.75581500  1
  P  P14  1  0.91616900  0.77945800  0.83898800  1
  P  P15  1  0.76775300  0.91624200  0.34247900  1
  P  P16  1  0.91875600  0.31841500  0.34348800  1
  P  P17  1  0.66209200  0.66800000  0.12989500  1
  P  P18  1  0.66962200  0.66745900  0.63157500  1
  P  P19  1  0.77163700  0.31371600  0.84382100  1
  P  P20  1  0.68569600  0.22766600  0.66261500  1
  P  P21  1  0.31333400  0.91372900  0.84222300  1
  P  P22  1  0.69049500  0.08642600  0.15935700  1
  P  P23  1  0.31735600  0.76866100  0.34200400  1
  P  P24  1  0.22503800  0.68794700  0.16009500  1
  P  P25  1  0.33257700  0.33685400  0.36745600  1
  P  P26  1  0.33266800  0.33463300  0.86878700  1
  P  P27  1  0.08769800  0.68025900  0.65703800  1
  P  P28  1  0.22671300  0.08796900  0.66195200  1
  P  P29  1  0.08828200  0.22227300  0.16179100  1
  O  O30  1  0.00005300  0.75205100  0.56723300  1
  O  O31  1  0.91639600  0.75112000  0.33490800  1
  O  O32  1  0.79272600  0.00325300  0.07877700  1
  O  O33  1  0.74104500  0.91297300  0.83026000  1
  O  O34  1  0.92119500  0.61764500  0.83013500  1
  O  O35  1  0.80499600  0.67249800  0.17080100  1
  O  O36  1  0.90837300  0.47699200  0.31831700  1
  O  O37  1  0.99171800  0.21377200  0.08428400  1
  O  O38  1  0.91399400  0.34289100  0.82811900  1
  O  O39  1  0.66546600  0.82044400  0.67292800  1
  O  O40  1  0.61821300  0.90376500  0.31590600  1
  O  O41  1  0.81871000  0.52233600  0.67788000  1
  O  O42  1  0.64722900  0.66634100  0.02615800  1
  O  O43  1  0.68308600  0.66434000  0.52722500  1
  O  O44  1  0.66596100  0.51547500  0.17281600  1
  O  O45  1  0.47290300  0.91005600  0.82477200  1
  O  O46  1  0.50872100  0.81685200  0.17250200  1
  O  O47  1  0.74960600  0.33983100  0.32865900  1
  O  O48  1  0.78671400  0.19870500  0.75861100  1
  O  O49  1  0.77554100  0.23142300  0.58043700  1
  O  O50  1  0.79033200  0.23151000  0.93484200  1
  O  O51  1  0.61949600  0.46972200  0.83021300  1
  O  O52  1  0.51924400  0.66687200  0.66627700  1
  O  O53  1  0.65473300  0.26285500  0.16149200  1
  O  O54  1  0.47792700  0.61880900  0.32029500  1
  O  O55  1  0.33913900  0.91510800  0.33377500  1
  O  O56  1  0.78163900  0.01682300  0.25801800  1
  O  O57  1  0.75149000  0.99153200  0.43490900  1
  O  O58  1  0.23266700  0.99323600  0.57902900  1
  O  O59  1  0.65774500  0.08402600  0.66196300  1
  O  O60  1  0.52601700  0.38048600  0.67793100  1
  O  O61  1  0.34259400  0.74536400  0.82693500  1
  O  O62  1  0.47815900  0.34167100  0.31981600  1
  O  O63  1  0.37855200  0.52577300  0.16821000  1
  O  O64  1  0.21286500  0.79197700  0.08109400  1
  O  O65  1  0.24903800  0.75701500  0.43312300  1
  O  O66  1  0.20241800  0.78400300  0.25831100  1
  O  O67  1  0.25290600  0.66198200  0.65778100  1
  O  O68  1  0.48155900  0.18399000  0.82561200  1
  O  O69  1  0.52831100  0.09346300  0.16748600  1
  O  O70  1  0.32931000  0.48063600  0.82830000  1
  O  O71  1  0.33298300  0.32551200  0.97335700  1
  O  O72  1  0.34551400  0.32690800  0.47080100  1
  O  O73  1  0.18329000  0.48629300  0.33073600  1
  O  O74  1  0.38085000  0.09330800  0.67861900  1
  O  O75  1  0.34058900  0.18544100  0.31842600  1
  O  O76  1  0.08667000  0.65367600  0.16318900  1
  O  O77  1  0.99331600  0.79735400  0.74270300  1
  O  O78  1  0.99510600  0.79912100  0.92185900  1
  O  O79  1  0.09726800  0.52127900  0.67948900  1
  O  O80  1  0.18562900  0.32939700  0.82578400  1
  O  O81  1  0.10386500  0.37162000  0.16828900  1
  O  O82  1  0.26100100  0.07824600  0.16036100  1
  O  O83  1  0.24156800  0.98196600  0.93459200  1
  O  O84  1  0.19975400  0.01491700  0.75771700  1
  O  O85  1  0.08398800  0.25864600  0.66134300  1
  O  O86  1  0.98555500  0.25555000  0.43627700  1
  O  O87  1  0.02156000  0.19864300  0.26119100  1
