# generated using pymatgen
data_Li7V(O2F)2
_symmetry_space_group_name_H-M   'P 1'
_cell_length_a   5.52295468
_cell_length_b   10.41518079
_cell_length_c   9.85261856
_cell_angle_alpha   107.60596281
_cell_angle_beta   90.33596520
_cell_angle_gamma   90.82342788
_symmetry_Int_Tables_number   1
_chemical_formula_structural   Li7V(O2F)2
_chemical_formula_sum   'Li28 V4 O16 F8'
_cell_volume   540.11424011
_cell_formula_units_Z   4
loop_
 _symmetry_equiv_pos_site_id
 _symmetry_equiv_pos_as_xyz
  1  'x, y, z'
loop_
 _atom_site_type_symbol
 _atom_site_label
 _atom_site_symmetry_multiplicity
 _atom_site_fract_x
 _atom_site_fract_y
 _atom_site_fract_z
 _atom_site_occupancy
  Li  Li0  1  0.18078800  0.14844500  0.23593000  1
  Li  Li1  1  0.68091300  0.64855900  0.23594700  1
  Li  Li2  1  0.17736800  0.67899700  0.74894200  1
  Li  Li3  1  0.67733800  0.17895400  0.74889800  1
  Li  Li4  1  0.21222000  0.66796200  0.38136200  1
  Li  Li5  1  0.71226100  0.16803200  0.38136300  1
  Li  Li6  1  0.30016000  0.33735300  0.12831500  1
  Li  Li7  1  0.80024900  0.83742600  0.12842500  1
  Li  Li8  1  0.38326200  0.35481100  0.45431400  1
  Li  Li9  1  0.88351700  0.85484100  0.45431600  1
  Li  Li10  1  0.34917500  0.82138000  0.95208200  1
  Li  Li11  1  0.84908200  0.32142700  0.95205900  1
  Li  Li12  1  0.49040700  0.51100600  0.68497700  1
  Li  Li13  1  0.99042200  0.01100800  0.68498900  1
  Li  Li14  1  0.62510800  0.17446300  0.05084500  1
  Li  Li15  1  0.12514200  0.67461800  0.05081500  1
  Li  Li16  1  0.62972200  0.67005400  0.54912200  1
  Li  Li17  1  0.12992700  0.17002100  0.54914300  1
  Li  Li18  1  0.69327200  0.67587500  0.87821800  1
  Li  Li19  1  0.19321400  0.17574900  0.87817000  1
  Li  Li20  1  0.80798500  0.31187000  0.61512600  1
  Li  Li21  1  0.30799700  0.81193500  0.61513900  1
  Li  Li22  1  0.79247800  0.37230700  0.26602900  1
  Li  Li23  1  0.29262100  0.87200200  0.26590300  1
  Li  Li24  1  0.84892800  0.81582200  0.74545000  1
  Li  Li25  1  0.34889800  0.31583800  0.74550200  1
  Li  Li26  1  0.99908000  0.48301200  0.80759500  1
  Li  Li27  1  0.49911400  0.98303600  0.80756500  1
  V  V28  1  0.02802300  0.00397000  0.99048300  1
  V  V29  1  0.99482800  0.49912600  0.52523800  1
  V  V30  1  0.52805500  0.50406700  0.99051600  1
  V  V31  1  0.49497900  0.99922800  0.52517500  1
  O  O32  1  0.17494000  0.87888800  0.80474100  1
  O  O33  1  0.67490700  0.37893800  0.80477900  1
  O  O34  1  0.28862400  0.13501500  0.04560200  1
  O  O35  1  0.78851600  0.63505400  0.04562300  1
  O  O36  1  0.30038100  0.60930400  0.54958700  1
  O  O37  1  0.80048700  0.10927600  0.54956900  1
  O  O38  1  0.34573200  0.61356400  0.88403900  1
  O  O39  1  0.84562400  0.11352500  0.88399600  1
  O  O40  1  0.62621600  0.38184000  0.10185100  1
  O  O41  1  0.12629100  0.88174500  0.10175300  1
  O  O42  1  0.71934300  0.37058100  0.45560500  1
  O  O43  1  0.21954100  0.87049100  0.45556200  1
  O  O44  1  0.83899100  0.61702000  0.69484200  1
  O  O45  1  0.33909500  0.11693100  0.69479500  1
  O  O46  1  0.15756600  0.37208800  0.61882300  1
  O  O47  1  0.65769000  0.87206200  0.61874600  1
  F  F48  1  0.85933300  0.62849200  0.39151500  1
  F  F49  1  0.35940800  0.12848600  0.39146500  1
  F  F50  1  0.15226600  0.36669100  0.30978800  1
  F  F51  1  0.65244100  0.86676200  0.30990000  1
  F  F52  1  0.68687500  0.87014800  0.93945300  1
  F  F53  1  0.18679800  0.37014100  0.93940500  1
  F  F54  1  0.83616100  0.12973200  0.19029400  1
  F  F55  1  0.33624400  0.63003100  0.19031600  1
