# generated using pymatgen
data_Li5NiP3O11
_symmetry_space_group_name_H-M   'P 1'
_cell_length_a   5.33976600
_cell_length_b   8.40437476
_cell_length_c   9.56395684
_cell_angle_alpha   84.04275155
_cell_angle_beta   88.55218640
_cell_angle_gamma   85.91479268
_symmetry_Int_Tables_number   1
_chemical_formula_structural   Li5NiP3O11
_chemical_formula_sum   'Li10 Ni2 P6 O22'
_cell_volume   425.73385279
_cell_formula_units_Z   2
loop_
 _symmetry_equiv_pos_site_id
 _symmetry_equiv_pos_as_xyz
  1  'x, y, z'
loop_
 _atom_site_type_symbol
 _atom_site_label
 _atom_site_symmetry_multiplicity
 _atom_site_fract_x
 _atom_site_fract_y
 _atom_site_fract_z
 _atom_site_occupancy
  Li  Li0  1  0.77654400  0.67319700  0.65661600  1
  Li  Li1  1  0.72091000  0.36624200  0.17215600  1
  Li  Li2  1  0.67939200  0.61776600  0.31719400  1
  Li  Li3  1  0.82060400  0.37939900  0.84570500  1
  Li  Li4  1  0.48650200  0.99843700  0.15996000  1
  Li  Li5  1  0.51349800  0.00156300  0.84004000  1
  Li  Li6  1  0.17939600  0.62060100  0.15429500  1
  Li  Li7  1  0.32060800  0.38223400  0.68280600  1
  Li  Li8  1  0.27909000  0.63375800  0.82784400  1
  Li  Li9  1  0.22345600  0.32680300  0.34338400  1
  Ni  Ni10  1  0.00000000  0.00000000  0.00000000  1
  Ni  Ni11  1  0.50000000  0.00000000  0.50000000  1
  P  P12  1  0.97010200  0.04331100  0.68605100  1
  P  P13  1  0.77547500  0.70395300  0.98425500  1
  P  P14  1  0.73203800  0.32688400  0.52321800  1
  P  P15  1  0.26796200  0.67311600  0.47678200  1
  P  P16  1  0.22452500  0.29604700  0.01574500  1
  P  P17  1  0.02989800  0.95668900  0.31394900  1
  O  O18  1  0.03991400  0.76191500  0.93353000  1
  O  O19  1  0.96057900  0.19430800  0.56600800  1
  O  O20  1  0.88650200  0.11852500  0.82159700  1
  O  O21  1  0.80792900  0.59327700  0.12443400  1
  O  O22  1  0.82316600  0.40251900  0.38113000  1
  O  O23  1  0.75522500  0.02220500  0.31649500  1
  O  O24  1  0.76970500  0.93177200  0.65300800  1
  O  O25  1  0.69971300  0.43533300  0.64250300  1
  O  O26  1  0.65739600  0.61704500  0.86962800  1
  O  O27  1  0.61805800  0.86090200  0.01287400  1
  O  O28  1  0.51291500  0.75944000  0.48179400  1
  O  O29  1  0.48708500  0.24056000  0.51820600  1
  O  O30  1  0.38194200  0.13909800  0.98712600  1
  O  O31  1  0.34260400  0.38295500  0.13037200  1
  O  O32  1  0.30028700  0.56466700  0.35749700  1
  O  O33  1  0.23029500  0.06822800  0.34699200  1
  O  O34  1  0.24477500  0.97779500  0.68350500  1
  O  O35  1  0.17683400  0.59748100  0.61887000  1
  O  O36  1  0.19207100  0.40672300  0.87556600  1
  O  O37  1  0.11349800  0.88147500  0.17840300  1
  O  O38  1  0.03942100  0.80569200  0.43399200  1
  O  O39  1  0.96008600  0.23808500  0.06647000  1
