# generated using pymatgen
data_Li2Mg11(WO4)12
_symmetry_space_group_name_H-M   'P 1'
_cell_length_a   10.76840100
_cell_length_b   5.27468100
_cell_length_c   17.77159881
_cell_angle_alpha   89.65412630
_cell_angle_beta   90.00000000
_cell_angle_gamma   90.00000000
_symmetry_Int_Tables_number   1
_chemical_formula_structural   Li2Mg11(WO4)12
_chemical_formula_sum   'Li2 Mg11 W12 O48'
_cell_volume   1009.40629020
_cell_formula_units_Z   1
loop_
 _symmetry_equiv_pos_site_id
 _symmetry_equiv_pos_as_xyz
  1  'x, y, z'
loop_
 _atom_site_type_symbol
 _atom_site_label
 _atom_site_symmetry_multiplicity
 _atom_site_fract_x
 _atom_site_fract_y
 _atom_site_fract_z
 _atom_site_occupancy
  Li  Li0  1  0.50000000  0.75732800  0.70710400  1
  Li  Li1  1  0.00000000  0.89538000  0.75026400  1
  Mg  Mg2  1  0.50000000  0.10443100  0.25073300  1
  Mg  Mg3  1  0.32414900  0.24222000  0.97046100  1
  Mg  Mg4  1  0.67585100  0.24222000  0.97046100  1
  Mg  Mg5  1  0.82761800  0.26090500  0.46952300  1
  Mg  Mg6  1  0.17238200  0.26090500  0.46952300  1
  Mg  Mg7  1  0.00000000  0.39419200  0.75087400  1
  Mg  Mg8  1  0.50000000  0.60449500  0.24910500  1
  Mg  Mg9  1  0.32317500  0.74317600  0.52924400  1
  Mg  Mg10  1  0.67682500  0.74317600  0.52924400  1
  Mg  Mg11  1  0.82732500  0.76083000  0.02992700  1
  Mg  Mg12  1  0.17267500  0.76083000  0.02992700  1
  W  W13  1  0.00000000  0.22146100  0.94342900  1
  W  W14  1  0.27736500  0.21887200  0.65754400  1
  W  W15  1  0.72263500  0.21887200  0.65754400  1
  W  W16  1  0.77508300  0.27926700  0.15789500  1
  W  W17  1  0.22491700  0.27926700  0.15789500  1
  W  W18  1  0.50000000  0.28394500  0.44353800  1
  W  W19  1  0.00000000  0.72006900  0.55748200  1
  W  W20  1  0.72652800  0.72168200  0.84235000  1
  W  W21  1  0.27347200  0.72168200  0.84235000  1
  W  W22  1  0.77575100  0.78100100  0.34167900  1
  W  W23  1  0.22424900  0.78100100  0.34167900  1
  W  W24  1  0.50000000  0.78268300  0.05674400  1
  O  O25  1  0.86018500  0.04713500  0.37984500  1
  O  O26  1  0.13981500  0.04713500  0.37984500  1
  O  O27  1  0.50000000  0.06655600  0.99539300  1
  O  O28  1  0.86462800  0.07912400  0.21488400  1
  O  O29  1  0.13537200  0.07912400  0.21488400  1
  O  O30  1  0.26331200  0.07980100  0.07309300  1
  O  O31  1  0.73668800  0.07980100  0.07309300  1
  O  O32  1  0.36690000  0.08560900  0.46516100  1
  O  O33  1  0.63310000  0.08560900  0.46516100  1
  O  O34  1  0.86918600  0.15220900  0.70549400  1
  O  O35  1  0.13081400  0.15220900  0.70549400  1
  O  O36  1  0.00000000  0.14951500  0.84469500  1
  O  O37  1  0.50000000  0.35568500  0.34312700  1
  O  O38  1  0.37398600  0.35508600  0.20622700  1
  O  O39  1  0.62601400  0.35508600  0.20622700  1
  O  O40  1  0.13446700  0.41786000  0.96498400  1
  O  O41  1  0.86553300  0.41786000  0.96498400  1
  O  O42  1  0.76058300  0.41319100  0.57177700  1
  O  O43  1  0.23941700  0.41319100  0.57177700  1
  O  O44  1  0.36962400  0.42927400  0.71037600  1
  O  O45  1  0.63037600  0.42927400  0.71037600  1
  O  O46  1  0.00000000  0.43739900  0.49598200  1
  O  O47  1  0.35814000  0.45252900  0.87892600  1
  O  O48  1  0.64186000  0.45252900  0.87892600  1
  O  O49  1  0.86002600  0.54693800  0.12056200  1
  O  O50  1  0.13997400  0.54693800  0.12056200  1
  O  O51  1  0.50000000  0.56588100  0.50496000  1
  O  O52  1  0.86555000  0.57987700  0.28602300  1
  O  O53  1  0.13445000  0.57987700  0.28602300  1
  O  O54  1  0.26336800  0.58059200  0.42694700  1
  O  O55  1  0.73663200  0.58059200  0.42694700  1
  O  O56  1  0.36666500  0.58545700  0.03540600  1
  O  O57  1  0.63333500  0.58545700  0.03540600  1
  O  O58  1  0.87119900  0.63670300  0.79545300  1
  O  O59  1  0.12880100  0.63670300  0.79545300  1
  O  O60  1  0.00000000  0.63616500  0.65532400  1
  O  O61  1  0.50000000  0.85541800  0.15689100  1
  O  O62  1  0.37408100  0.85466700  0.29361700  1
  O  O63  1  0.62591900  0.85466700  0.29361700  1
  O  O64  1  0.86438300  0.91614700  0.53653400  1
  O  O65  1  0.13561700  0.91614700  0.53653400  1
  O  O66  1  0.76251200  0.92334600  0.92674700  1
  O  O67  1  0.23748800  0.92334600  0.92674700  1
  O  O68  1  0.36684600  0.90973600  0.78126300  1
  O  O69  1  0.63315400  0.90973600  0.78126300  1
  O  O70  1  0.00000000  0.93380100  0.00412500  1
  O  O71  1  0.36308300  0.94106500  0.62317300  1
  O  O72  1  0.63691700  0.94106500  0.62317300  1
