# generated using pymatgen
data_Li7V16(PO4)24
_symmetry_space_group_name_H-M   'P 1'
_cell_length_a   8.45287500
_cell_length_b   8.69657971
_cell_length_c   23.65688839
_cell_angle_alpha   89.99142186
_cell_angle_beta   89.02642649
_cell_angle_gamma   89.97678938
_symmetry_Int_Tables_number   1
_chemical_formula_structural   Li7V16(PO4)24
_chemical_formula_sum   'Li7 V16 P24 O96'
_cell_volume   1738.79270586
_cell_formula_units_Z   1
loop_
 _symmetry_equiv_pos_site_id
 _symmetry_equiv_pos_as_xyz
  1  'x, y, z'
loop_
 _atom_site_type_symbol
 _atom_site_label
 _atom_site_symmetry_multiplicity
 _atom_site_fract_x
 _atom_site_fract_y
 _atom_site_fract_z
 _atom_site_occupancy
  Li  Li0  1  0.19418700  0.71712600  0.91148800  1
  Li  Li1  1  0.30431300  0.21724300  0.33868700  1
  Li  Li2  1  0.30554300  0.21724000  0.83881000  1
  Li  Li3  1  0.69321300  0.78206800  0.16142900  1
  Li  Li4  1  0.69409200  0.78267100  0.66116000  1
  Li  Li5  1  0.80625700  0.28270100  0.08894100  1
  Li  Li6  1  0.80409800  0.28183600  0.58817300  1
  V  V7  1  0.24516700  0.96881200  0.19296900  1
  V  V8  1  0.25455300  0.46949700  0.05807400  1
  V  V9  1  0.24876000  0.54032000  0.30926700  1
  V  V10  1  0.25013600  0.02771000  0.44308400  1
  V  V11  1  0.24525000  0.96904400  0.69245900  1
  V  V12  1  0.25252600  0.46936500  0.55709300  1
  V  V13  1  0.24879800  0.53661500  0.80664300  1
  V  V14  1  0.25077400  0.03674800  0.94384400  1
  V  V15  1  0.74917500  0.96341800  0.05665000  1
  V  V16  1  0.75086900  0.46318800  0.19372200  1
  V  V17  1  0.74778900  0.53108100  0.44149900  1
  V  V18  1  0.75651300  0.03208100  0.30726700  1
  V  V19  1  0.75010700  0.96302800  0.55649100  1
  V  V20  1  0.75061800  0.46320600  0.69359400  1
  V  V21  1  0.74535900  0.53105700  0.94266100  1
  V  V22  1  0.75454900  0.03078600  0.80764900  1
  P  P23  1  0.03582100  0.25139200  0.25393300  1
  P  P24  1  0.03364100  0.25000000  0.75376500  1
  P  P25  1  0.10871800  0.11701500  0.07450600  1
  P  P26  1  0.11313600  0.38782500  0.42892800  1
  P  P27  1  0.10790900  0.11771600  0.57410400  1
  P  P28  1  0.11326100  0.38886300  0.92931300  1
  P  P29  1  0.39037800  0.61599500  0.17712500  1
  P  P30  1  0.38847600  0.88608100  0.32084000  1
  P  P31  1  0.39165400  0.61722300  0.67562500  1
  P  P32  1  0.38717700  0.88879400  0.82092600  1
  P  P33  1  0.46858600  0.74875300  0.49598700  1
  P  P34  1  0.46643100  0.75008900  0.99626800  1
  P  P35  1  0.53366000  0.25012900  0.00392400  1
  P  P36  1  0.53227100  0.25099500  0.50327100  1
  P  P37  1  0.61297200  0.11161100  0.17920500  1
  P  P38  1  0.60792600  0.38270100  0.32445100  1
  P  P39  1  0.61318900  0.11116800  0.67901700  1
  P  P40  1  0.60833500  0.38300500  0.82425700  1
  P  P41  1  0.88688900  0.61117100  0.07105700  1
  P  P42  1  0.89369600  0.88228200  0.42600800  1
  P  P43  1  0.88635200  0.61062200  0.57085400  1
  P  P44  1  0.89191300  0.88295800  0.92583100  1
  P  P45  1  0.96695100  0.74971000  0.24640500  1
  P  P46  1  0.96622400  0.74982400  0.74615100  1
  O  O47  1  0.06553500  0.82733700  0.19897500  1
  O  O48  1  0.06236500  0.60392800  0.05514500  1
  O  O49  1  0.06566100  0.82682500  0.69879800  1
  O  O50  1  0.07198800  0.92346600  0.41553000  1
  O  O51  1  0.06139600  0.63548200  0.28137700  1
  O  O52  1  0.06232400  0.60293400  0.55521700  1
  O  O53  1  0.06987900  0.91297800  0.91415600  1
  O  O54  1  0.06114500  0.63338000  0.78067400  1
  O  O55  1  0.11008100  0.13564800  0.21166700  1
  O  O56  1  0.10981300  0.13651900  0.71137900  1
  O  O57  1  0.12716300  0.29323600  0.08061900  1
  O  O58  1  0.14620600  0.07074400  0.01181600  1
  O  O59  1  0.16517100  0.22274300  0.40926600  1
  O  O60  1  0.12612500  0.29327900  0.58074700  1
  O  O61  1  0.14535700  0.07178100  0.51112100  1
  O  O62  1  0.14945300  0.50063300  0.37997600  1
  O  O63  1  0.16327200  0.22706400  0.90770400  1
  O  O64  1  0.15107500  0.50934900  0.88141300  1
  O  O65  1  0.17485900  0.33258500  0.28354300  1
  O  O66  1  0.17231700  0.33219100  0.78428300  1
  O  O67  1  0.21548800  0.02403900  0.11285200  1
  O  O68  1  0.21424800  0.02384700  0.61249500  1
  O  O69  1  0.21955100  0.42999500  0.47886400  1
  O  O70  1  0.22043000  0.43235300  0.97851400  1
  O  O71  1  0.27857700  0.93252300  0.27266700  1
  O  O72  1  0.28559500  0.52462800  0.13708900  1
  O  O73  1  0.27955800  0.93168100  0.77138200  1
  O  O74  1  0.28613000  0.52393500  0.63610400  1
  O  O75  1  0.33329400  0.84462400  0.46701500  1
  O  O76  1  0.32766600  0.83246400  0.96557000  1
  O  O77  1  0.34886600  0.00662200  0.36962200  1
  O  O78  1  0.35121000  0.56882800  0.23879300  1
  O  O79  1  0.37136700  0.79272200  0.17032700  1
  O  O80  1  0.34876400  0.72312000  0.34076400  1
  O  O81  1  0.34925700  0.00917800  0.86840900  1
  O  O82  1  0.35308000  0.57008300  0.73769800  1
  O  O83  1  0.37250800  0.79333500  0.66903800  1
  O  O84  1  0.33707400  0.72663300  0.84220100  1
  O  O85  1  0.39074500  0.63674400  0.03837300  1
  O  O86  1  0.38705800  0.63886500  0.53720000  1
  O  O87  1  0.43749600  0.10316800  0.19499200  1
  O  O88  1  0.43021900  0.13593900  0.46862500  1
  O  O89  1  0.43115200  0.41157500  0.33670000  1
  O  O90  1  0.43443000  0.32695300  0.05105100  1
  O  O91  1  0.43727900  0.10353500  0.69461000  1
  O  O92  1  0.43878100  0.13379700  0.96926500  1
  O  O93  1  0.43010800  0.41280700  0.83558100  1
  O  O94  1  0.43400100  0.32768400  0.55067900  1
  O  O95  1  0.56523700  0.67352700  0.44836600  1
  O  O96  1  0.56891600  0.58676600  0.16528400  1
  O  O97  1  0.56146800  0.86698000  0.03057700  1
  O  O98  1  0.56393100  0.90191400  0.30522100  1
  O  O99  1  0.56572100  0.67317000  0.94882500  1
  O  O100  1  0.56947100  0.58707700  0.66408600  1
  O  O101  1  0.56534300  0.86148700  0.53123200  1
  O  O102  1  0.56285500  0.89615000  0.80500700  1
  O  O103  1  0.60789000  0.36244600  0.46105100  1
  O  O104  1  0.60999300  0.36373700  0.96151300  1
  O  O105  1  0.66239100  0.27369500  0.15761900  1
  O  O106  1  0.62979900  0.20715600  0.33135600  1
  O  O107  1  0.64652100  0.42971000  0.26247100  1
  O  O108  1  0.65083200  0.99093600  0.13151000  1
  O  O109  1  0.66300400  0.27290000  0.65741700  1
  O  O110  1  0.62781200  0.20681900  0.83057100  1
  O  O111  1  0.64598200  0.42946800  0.76164300  1
  O  O112  1  0.65149900  0.99102500  0.63109100  1
  O  O113  1  0.67262000  0.16782000  0.03434800  1
  O  O114  1  0.66931400  0.16499900  0.53330900  1
  O  O115  1  0.71558000  0.47687300  0.36341400  1
  O  O116  1  0.72184800  0.06960500  0.22827700  1
  O  O117  1  0.71475700  0.47601900  0.86267000  1
  O  O118  1  0.72075400  0.06758000  0.72815700  1
  O  O119  1  0.77899500  0.56826300  0.02168000  1
  O  O120  1  0.78001400  0.56767800  0.52095500  1
  O  O121  1  0.78919700  0.97679800  0.38757700  1
  O  O122  1  0.78501200  0.97580500  0.88705900  1
  O  O123  1  0.82811100  0.66749500  0.21590300  1
  O  O124  1  0.82749400  0.66750300  0.71552400  1
  O  O125  1  0.84871500  0.49097100  0.11864100  1
  O  O126  1  0.83659100  0.77329600  0.09239300  1
  O  O127  1  0.84763900  0.48992400  0.61825400  1
  O  O128  1  0.85562000  0.92712900  0.48874000  1
  O  O129  1  0.87515400  0.70795600  0.41906300  1
  O  O130  1  0.83741400  0.77232100  0.59248300  1
  O  O131  1  0.85417700  0.92950800  0.98810500  1
  O  O132  1  0.87254800  0.70667100  0.91933500  1
  O  O133  1  0.88956300  0.86491500  0.28811400  1
  O  O134  1  0.89028100  0.86316200  0.78837800  1
  O  O135  1  0.93893600  0.36604000  0.21907000  1
  O  O136  1  0.93033900  0.08687900  0.08570100  1
  O  O137  1  0.93721800  0.39448500  0.44518900  1
  O  O138  1  0.93870900  0.36642600  0.71920100  1
  O  O139  1  0.92981900  0.08757700  0.58542700  1
  O  O140  1  0.93571500  0.17355500  0.30112300  1
  O  O141  1  0.93732200  0.39630200  0.94486800  1
  O  O142  1  0.93446500  0.17256600  0.80092500  1
