# generated using pymatgen
data_Li17Ag12F29
_symmetry_space_group_name_H-M   'P 1'
_cell_length_a   10.90465005
_cell_length_b   10.90465005
_cell_length_c   10.90465005
_cell_angle_alpha   60.00000000
_cell_angle_beta   60.00000000
_cell_angle_gamma   60.00000000
_symmetry_Int_Tables_number   1
_chemical_formula_structural   Li17Ag12F29
_chemical_formula_sum   'Li17 Ag12 F29'
_cell_volume   916.89625994
_cell_formula_units_Z   1
loop_
 _symmetry_equiv_pos_site_id
 _symmetry_equiv_pos_as_xyz
  1  'x, y, z'
loop_
 _atom_site_type_symbol
 _atom_site_label
 _atom_site_symmetry_multiplicity
 _atom_site_fract_x
 _atom_site_fract_y
 _atom_site_fract_z
 _atom_site_occupancy
  Li  Li0  1  0.85282000  0.44154000  0.85282000  1
  Li  Li1  1  0.67104000  0.67104000  0.67104000  1
  Li  Li2  1  0.85282000  0.85282000  0.44154000  1
  Li  Li3  1  0.44154000  0.85282000  0.85282000  1
  Li  Li4  1  0.98688000  0.67104000  0.67104000  1
  Li  Li5  1  0.67104000  0.67104000  0.98688000  1
  Li  Li6  1  0.67104000  0.98688000  0.67104000  1
  Li  Li7  1  0.85282000  0.85282000  0.85282000  1
  Li  Li8  1  0.36400700  0.36400700  0.36400700  1
  Li  Li9  1  0.36400700  0.36400700  0.90798000  1
  Li  Li10  1  0.90798000  0.36400700  0.36400700  1
  Li  Li11  1  0.50000000  0.50000000  0.50000000  1
  Li  Li12  1  0.36400700  0.90798000  0.36400700  1
  Li  Li13  1  0.14745900  0.14745900  0.14745900  1
  Li  Li14  1  0.55762400  0.14745900  0.14745900  1
  Li  Li15  1  0.14745900  0.14745900  0.55762400  1
  Li  Li16  1  0.14745900  0.55762400  0.14745900  1
  Ag  Ag17  1  0.29809000  0.29809000  0.70191000  1
  Ag  Ag18  1  0.70191000  0.29809000  0.29809000  1
  Ag  Ag19  1  0.29809000  0.70191000  0.29809000  1
  Ag  Ag20  1  0.70191000  0.29809000  0.70191000  1
  Ag  Ag21  1  0.29809000  0.70191000  0.70191000  1
  Ag  Ag22  1  0.70191000  0.70191000  0.29809000  1
  Ag  Ag23  1  0.00532400  0.00532400  0.49467600  1
  Ag  Ag24  1  0.49467600  0.00532400  0.00532400  1
  Ag  Ag25  1  0.49467600  0.00532400  0.49467600  1
  Ag  Ag26  1  0.00532400  0.49467600  0.00532400  1
  Ag  Ag27  1  0.00532400  0.49467600  0.49467600  1
  Ag  Ag28  1  0.49467600  0.49467600  0.00532400  1
  F  F29  1  0.75000000  0.75000000  0.75000000  1
  F  F30  1  0.24927200  0.24927200  0.53173400  1
  F  F31  1  0.53173400  0.24927200  0.24927200  1
  F  F32  1  0.46516600  0.03369200  0.75057100  1
  F  F33  1  0.75057100  0.03369200  0.46516600  1
  F  F34  1  0.24927200  0.53173400  0.24927200  1
  F  F35  1  0.75057100  0.03369200  0.75057100  1
  F  F36  1  0.03369200  0.46516600  0.75057100  1
  F  F37  1  0.75057100  0.46516600  0.03369200  1
  F  F38  1  0.24927200  0.24927200  0.96972100  1
  F  F39  1  0.96972100  0.24927200  0.24927200  1
  F  F40  1  0.43151000  0.43151000  0.43151000  1
  F  F41  1  0.03369200  0.75057100  0.46516600  1
  F  F42  1  0.46516600  0.75057100  0.03369200  1
  F  F43  1  0.43151000  0.43151000  0.70547000  1
  F  F44  1  0.70547000  0.43151000  0.43151000  1
  F  F45  1  0.53173400  0.24927200  0.96972100  1
  F  F46  1  0.96972100  0.24927200  0.53173400  1
  F  F47  1  0.43151000  0.70547000  0.43151000  1
  F  F48  1  0.24927200  0.53173400  0.96972100  1
  F  F49  1  0.96972100  0.53173400  0.24927200  1
  F  F50  1  0.75057100  0.75057100  0.03369200  1
  F  F51  1  0.03369200  0.75057100  0.75057100  1
  F  F52  1  0.75057100  0.46516600  0.75057100  1
  F  F53  1  0.24927200  0.96972100  0.24927200  1
  F  F54  1  0.75057100  0.75057100  0.46516600  1
  F  F55  1  0.46516600  0.75057100  0.75057100  1
  F  F56  1  0.24927200  0.96972100  0.53173400  1
  F  F57  1  0.53173400  0.96972100  0.24927200  1
