# generated using pymatgen
data_Li3V3P8O29
_symmetry_space_group_name_H-M   'P 1'
_cell_length_a   9.71326900
_cell_length_b   9.76674069
_cell_length_c   14.30557840
_cell_angle_alpha   89.20332643
_cell_angle_beta   89.40519466
_cell_angle_gamma   60.37689000
_symmetry_Int_Tables_number   1
_chemical_formula_structural   Li3V3P8O29
_chemical_formula_sum   'Li6 V6 P16 O58'
_cell_volume   1179.62093067
_cell_formula_units_Z   2
loop_
 _symmetry_equiv_pos_site_id
 _symmetry_equiv_pos_as_xyz
  1  'x, y, z'
loop_
 _atom_site_type_symbol
 _atom_site_label
 _atom_site_symmetry_multiplicity
 _atom_site_fract_x
 _atom_site_fract_y
 _atom_site_fract_z
 _atom_site_occupancy
  Li  Li0  1  0.30113300  0.91735700  0.44535700  1
  Li  Li1  1  0.90506900  0.32935700  0.93888700  1
  Li  Li2  1  0.77259000  0.31555200  0.44246800  1
  Li  Li3  1  0.09374000  0.67249900  0.05620000  1
  Li  Li4  1  0.69464100  0.07995100  0.56182100  1
  Li  Li5  1  0.99791400  0.00193200  0.99166600  1
  V  V6  1  0.43416700  0.56986600  0.75236000  1
  V  V7  1  0.55958200  0.43436400  0.24421700  1
  V  V8  1  0.99800200  0.56802900  0.25741500  1
  V  V9  1  0.00232700  0.43423000  0.74319100  1
  V  V10  1  0.56643100  0.99391700  0.76085700  1
  V  V11  1  0.43573400  0.00303500  0.24137600  1
  P  P12  1  0.78580900  0.91615400  0.16184200  1
  P  P13  1  0.91247800  0.77767800  0.66051300  1
  P  P14  1  0.31821000  0.91303600  0.65962400  1
  P  P15  1  0.67172100  0.65764400  0.86891800  1
  P  P16  1  0.65828600  0.66756600  0.36641200  1
  P  P17  1  0.30401000  0.77878800  0.15949900  1
  P  P18  1  0.22998800  0.68424300  0.34350100  1
  P  P19  1  0.91318900  0.31882600  0.15655700  1
  P  P20  1  0.08566600  0.68520900  0.84143000  1
  P  P21  1  0.76831700  0.32050500  0.65680900  1
  P  P22  1  0.69459700  0.22218400  0.83870100  1
  P  P23  1  0.34444900  0.32877300  0.63457800  1
  P  P24  1  0.32701500  0.33938100  0.13129600  1
  P  P25  1  0.67970600  0.08963800  0.34259100  1
  P  P26  1  0.08851900  0.22291000  0.33579500  1
  P  P27  1  0.21353700  0.08588700  0.83954900  1
  O  O28  1  0.74171400  0.01746800  0.43529300  1
  O  O29  1  0.74011700  0.91958100  0.66708000  1
  O  O30  1  0.01903600  0.76318100  0.93257200  1
  O  O31  1  0.91981600  0.74039100  0.16765300  1
  O  O32  1  0.62103900  0.92084900  0.17004800  1
  O  O33  1  0.67517600  0.80828600  0.82745400  1
  O  O34  1  0.47772900  0.90463700  0.68488900  1
  O  O35  1  0.18578700  0.00768200  0.92111400  1
  O  O36  1  0.34563700  0.91310100  0.16525500  1
  O  O37  1  0.81419300  0.66081200  0.32290500  1
  O  O38  1  0.90504100  0.62133600  0.67844000  1
  O  O39  1  0.51718600  0.81941500  0.32228900  1
  O  O40  1  0.67366800  0.65198200  0.97259000  1
  O  O41  1  0.66135600  0.66408300  0.47000800  1
  O  O42  1  0.52016100  0.66758200  0.82376600  1
  O  O43  1  0.91446800  0.47357600  0.17515800  1
  O  O44  1  0.81746100  0.50785900  0.82661700  1
  O  O45  1  0.34234200  0.74402800  0.67106500  1
  O  O46  1  0.20607500  0.79680000  0.25400700  1
  O  O47  1  0.23797600  0.76355300  0.42849300  1
  O  O48  1  0.20298200  0.79296400  0.07855300  1
  O  O49  1  0.46146400  0.61823500  0.16923700  1
  O  O50  1  0.65748100  0.52106200  0.32422800  1
  O  O51  1  0.25895900  0.65217700  0.83004100  1
  O  O52  1  0.61958900  0.47987400  0.67642000  1
  O  O53  1  0.91553200  0.34256000  0.66444300  1
  O  O54  1  0.99130400  0.79875700  0.75545300  1
  O  O55  1  0.99814500  0.77499000  0.57465500  1
  O  O56  1  0.99057600  0.23015900  0.41760900  1
  O  O57  1  0.08643100  0.65514400  0.33554600  1
  O  O58  1  0.38030700  0.52412600  0.32167700  1
  O  O59  1  0.74109800  0.34913200  0.17243600  1
  O  O60  1  0.34976800  0.47015000  0.68192900  1
  O  O61  1  0.54206200  0.38325100  0.83293000  1
  O  O62  1  0.80669200  0.19931800  0.91568900  1
  O  O63  1  0.75989400  0.24704100  0.56732700  1
  O  O64  1  0.78692700  0.20081400  0.73984200  1
  O  O65  1  0.65877500  0.25820000  0.33396000  1
  O  O66  1  0.18284000  0.49028600  0.17260200  1
  O  O67  1  0.08423000  0.52948000  0.82544400  1
  O  O68  1  0.48011000  0.33063700  0.17682200  1
  O  O69  1  0.33021300  0.34267200  0.02779700  1
  O  O70  1  0.34728400  0.33051600  0.53111500  1
  O  O71  1  0.48563900  0.17659000  0.67810500  1
  O  O72  1  0.09733700  0.37794600  0.32206200  1
  O  O73  1  0.18725300  0.33852100  0.67711400  1
  O  O74  1  0.65277200  0.08736700  0.83623800  1
  O  O75  1  0.79983900  0.99029700  0.25959200  1
  O  O76  1  0.80908300  0.99593700  0.07968100  1
  O  O77  1  0.52105500  0.09641600  0.31651700  1
  O  O78  1  0.32519200  0.18945300  0.17417200  1
  O  O79  1  0.37920100  0.07772500  0.83282400  1
  O  O80  1  0.08133200  0.26232000  0.83365600  1
  O  O81  1  0.97523800  0.24502200  0.06435800  1
  O  O82  1  0.01439300  0.20044700  0.23986800  1
  O  O83  1  0.25845500  0.07942500  0.33643200  1
  O  O84  1  0.25556200  0.98710100  0.56756400  1
  O  O85  1  0.19751500  0.01276900  0.74203500  1
