# generated using pymatgen
data_Li8Fe7(PO4)8
_symmetry_space_group_name_H-M   'P 1'
_cell_length_a   9.53235400
_cell_length_b   10.37295700
_cell_length_c   12.13391300
_cell_angle_alpha   90.00000000
_cell_angle_beta   90.00000000
_cell_angle_gamma   90.00000000
_symmetry_Int_Tables_number   1
_chemical_formula_structural   Li8Fe7(PO4)8
_chemical_formula_sum   'Li16 Fe14 P16 O64'
_cell_volume   1199.78552091
_cell_formula_units_Z   2
loop_
 _symmetry_equiv_pos_site_id
 _symmetry_equiv_pos_as_xyz
  1  'x, y, z'
loop_
 _atom_site_type_symbol
 _atom_site_label
 _atom_site_symmetry_multiplicity
 _atom_site_fract_x
 _atom_site_fract_y
 _atom_site_fract_z
 _atom_site_occupancy
  Li  Li0  1  0.61958000  0.00820200  0.62238400  1
  Li  Li1  1  0.63047100  0.98304900  0.87976200  1
  Li  Li2  1  0.13139300  0.00823900  0.61946000  1
  Li  Li3  1  0.63047100  0.98304900  0.12023800  1
  Li  Li4  1  0.12620500  0.99903900  0.87759600  1
  Li  Li5  1  0.61958000  0.00820200  0.37761600  1
  Li  Li6  1  0.12620500  0.99903900  0.12240400  1
  Li  Li7  1  0.13139300  0.00823900  0.38054000  1
  Li  Li8  1  0.38042000  0.50820200  0.12238400  1
  Li  Li9  1  0.38042000  0.50820200  0.87761600  1
  Li  Li10  1  0.86860700  0.50823900  0.11946000  1
  Li  Li11  1  0.36952900  0.48304900  0.62023800  1
  Li  Li12  1  0.87379500  0.49903900  0.62240400  1
  Li  Li13  1  0.86860700  0.50823900  0.88054000  1
  Li  Li14  1  0.87379500  0.49903900  0.37759600  1
  Li  Li15  1  0.36952900  0.48304900  0.37976200  1
  Fe  Fe16  1  0.86739600  0.22362500  0.50000000  1
  Fe  Fe17  1  0.86330500  0.21737000  0.00000000  1
  Fe  Fe18  1  0.37228600  0.21259100  0.00000000  1
  Fe  Fe19  1  0.61325000  0.27776800  0.74643000  1
  Fe  Fe20  1  0.61325000  0.27776800  0.25357000  1
  Fe  Fe21  1  0.11355300  0.28244200  0.74786900  1
  Fe  Fe22  1  0.11355300  0.28244200  0.25213100  1
  Fe  Fe23  1  0.13260400  0.72362500  0.00000000  1
  Fe  Fe24  1  0.62771400  0.71259100  0.50000000  1
  Fe  Fe25  1  0.13669500  0.71737000  0.50000000  1
  Fe  Fe26  1  0.38675000  0.77776800  0.75357000  1
  Fe  Fe27  1  0.88644700  0.78244200  0.75213100  1
  Fe  Fe28  1  0.88644700  0.78244200  0.24786900  1
  Fe  Fe29  1  0.38675000  0.77776800  0.24643000  1
  P  P30  1  0.83226000  0.09518600  0.74939700  1
  P  P31  1  0.33217000  0.09542900  0.75107600  1
  P  P32  1  0.83226000  0.09518600  0.25060300  1
  P  P33  1  0.33217000  0.09542900  0.24892400  1
  P  P34  1  0.08657800  0.40329800  0.00000000  1
  P  P35  1  0.58422500  0.40189300  0.00000000  1
  P  P36  1  0.08444600  0.41444400  0.50000000  1
  P  P37  1  0.58515400  0.40015400  0.50000000  1
  P  P38  1  0.16774000  0.59518600  0.75060300  1
  P  P39  1  0.66783000  0.59542900  0.74892400  1
  P  P40  1  0.66783000  0.59542900  0.25107600  1
  P  P41  1  0.16774000  0.59518600  0.24939700  1
  P  P42  1  0.91342200  0.90329800  0.50000000  1
  P  P43  1  0.41577500  0.90189300  0.50000000  1
  P  P44  1  0.91555400  0.91444400  0.00000000  1
  P  P45  1  0.41484600  0.90015400  0.00000000  1
  O  O46  1  0.47434200  0.04403900  0.00000000  1
  O  O47  1  0.98824200  0.05042400  0.00000000  1
  O  O48  1  0.97176100  0.04322600  0.50000000  1
  O  O49  1  0.48216500  0.03497700  0.50000000  1
  O  O50  1  0.99270700  0.09802000  0.75059300  1
  O  O51  1  0.49384400  0.10251800  0.74846400  1
  O  O52  1  0.99270700  0.09802000  0.24940700  1
  O  O53  1  0.49384400  0.10251800  0.25153600  1
  O  O54  1  0.76499600  0.16766200  0.64790600  1
  O  O55  1  0.76387900  0.16937200  0.84898500  1
  O  O56  1  0.76499600  0.16766200  0.35209400  1
  O  O57  1  0.25503000  0.16749300  0.65896800  1
  O  O58  1  0.27284000  0.15794000  0.86268600  1
  O  O59  1  0.76387900  0.16937200  0.15101500  1
  O  O60  1  0.25503000  0.16749300  0.34103200  1
  O  O61  1  0.27284000  0.15794000  0.13731400  1
  O  O62  1  0.51708800  0.32077500  0.90052700  1
  O  O63  1  0.51708800  0.32077500  0.09947300  1
  O  O64  1  0.52344900  0.33847000  0.39458100  1
  O  O65  1  0.01963600  0.33497700  0.89753700  1
  O  O66  1  0.01963600  0.33497700  0.10246300  1
  O  O67  1  0.01779100  0.34108600  0.39876300  1
  O  O68  1  0.52344900  0.33847000  0.60541900  1
  O  O69  1  0.01779100  0.34108600  0.60123700  1
  O  O70  1  0.24899800  0.39355800  0.00000000  1
  O  O71  1  0.74496700  0.39924500  0.00000000  1
  O  O72  1  0.24224600  0.42540500  0.50000000  1
  O  O73  1  0.74725900  0.40164700  0.50000000  1
  O  O74  1  0.23094700  0.45735600  0.75240200  1
  O  O75  1  0.72203400  0.45318100  0.75123400  1
  O  O76  1  0.72203400  0.45318100  0.24876600  1
  O  O77  1  0.23094700  0.45735600  0.24759800  1
  O  O78  1  0.02823900  0.54322600  0.00000000  1
  O  O79  1  0.01175800  0.55042400  0.50000000  1
  O  O80  1  0.51783500  0.53497700  0.00000000  1
  O  O81  1  0.52565800  0.54403900  0.50000000  1
  O  O82  1  0.00729300  0.59802000  0.74940700  1
  O  O83  1  0.50615600  0.60251800  0.75153600  1
  O  O84  1  0.00729300  0.59802000  0.25059300  1
  O  O85  1  0.50615600  0.60251800  0.24846400  1
  O  O86  1  0.72716000  0.65794000  0.63731400  1
  O  O87  1  0.23612100  0.66937200  0.65101500  1
  O  O88  1  0.74497000  0.66749300  0.84103200  1
  O  O89  1  0.23500400  0.66766200  0.85209400  1
  O  O90  1  0.74497000  0.66749300  0.15896800  1
  O  O91  1  0.23500400  0.66766200  0.14790600  1
  O  O92  1  0.72716000  0.65794000  0.36268600  1
  O  O93  1  0.23612100  0.66937200  0.34898500  1
  O  O94  1  0.98036400  0.83497700  0.60246300  1
  O  O95  1  0.48291200  0.82077500  0.59947300  1
  O  O96  1  0.47655100  0.83847000  0.89458100  1
  O  O97  1  0.98220900  0.84108600  0.89876300  1
  O  O98  1  0.98220900  0.84108600  0.10123700  1
  O  O99  1  0.47655100  0.83847000  0.10541900  1
  O  O100  1  0.98036400  0.83497700  0.39753700  1
  O  O101  1  0.48291200  0.82077500  0.40052700  1
  O  O102  1  0.75100200  0.89355800  0.50000000  1
  O  O103  1  0.25503300  0.89924500  0.50000000  1
  O  O104  1  0.25274100  0.90164700  0.00000000  1
  O  O105  1  0.75775400  0.92540500  0.00000000  1
  O  O106  1  0.76905300  0.95735600  0.74759800  1
  O  O107  1  0.27796600  0.95318100  0.74876600  1
  O  O108  1  0.76905300  0.95735600  0.25240200  1
  O  O109  1  0.27796600  0.95318100  0.25123400  1
