# generated using pymatgen
data_LiNi(PO3)3
_symmetry_space_group_name_H-M   'P 1'
_cell_length_a   8.10985300
_cell_length_b   9.04429700
_cell_length_c   12.31996300
_cell_angle_alpha   90.00000000
_cell_angle_beta   90.00000000
_cell_angle_gamma   90.00000000
_symmetry_Int_Tables_number   1
_chemical_formula_structural   LiNi(PO3)3
_chemical_formula_sum   'Li4 Ni4 P12 O36'
_cell_volume   903.64365016
_cell_formula_units_Z   4
loop_
 _symmetry_equiv_pos_site_id
 _symmetry_equiv_pos_as_xyz
  1  'x, y, z'
loop_
 _atom_site_type_symbol
 _atom_site_label
 _atom_site_symmetry_multiplicity
 _atom_site_fract_x
 _atom_site_fract_y
 _atom_site_fract_z
 _atom_site_occupancy
  Li  Li0  1  0.99752000  0.33122100  0.00750700  1
  Li  Li1  1  0.50248000  0.66877900  0.50750700  1
  Li  Li2  1  0.49752000  0.16877900  0.99249300  1
  Li  Li3  1  0.00248000  0.83122100  0.49249300  1
  Ni  Ni4  1  0.17821700  0.20830000  0.62402500  1
  Ni  Ni5  1  0.32178300  0.79170000  0.12402500  1
  Ni  Ni6  1  0.67821700  0.29170000  0.37597500  1
  Ni  Ni7  1  0.82178300  0.70830000  0.87597500  1
  P  P8  1  0.17448500  0.99986000  0.31890300  1
  P  P9  1  0.18246200  0.48736400  0.18374400  1
  P  P10  1  0.21474100  0.69480800  0.87341700  1
  P  P11  1  0.28525900  0.30519200  0.37341700  1
  P  P12  1  0.31753800  0.51263600  0.68374400  1
  P  P13  1  0.32551500  0.00014000  0.81890300  1
  P  P14  1  0.67448500  0.50014000  0.68109700  1
  P  P15  1  0.68246200  0.01263600  0.81625600  1
  P  P16  1  0.71474100  0.80519200  0.12658300  1
  P  P17  1  0.78525900  0.19480800  0.62658300  1
  P  P18  1  0.81753800  0.98736400  0.31625600  1
  P  P19  1  0.82551500  0.49986000  0.18109700  1
  O  O20  1  0.00730200  0.57565400  0.18466300  1
  O  O21  1  0.04442700  0.62897500  0.86443400  1
  O  O22  1  0.16367600  0.39514900  0.29598300  1
  O  O23  1  0.18747600  0.39635000  0.70201800  1
  O  O24  1  0.20744400  0.85683900  0.82000400  1
  O  O25  1  0.20224700  0.93074100  0.20966200  1
  O  O26  1  0.19199500  0.90978200  0.42056400  1
  O  O27  1  0.18920500  0.38341500  0.08917900  1
  O  O28  1  0.20319600  0.29823600  0.48175700  1
  O  O29  1  0.29680400  0.70176400  0.98175700  1
  O  O30  1  0.31079500  0.61658500  0.58917900  1
  O  O31  1  0.30800500  0.09021800  0.92056400  1
  O  O32  1  0.29775300  0.06925900  0.70966200  1
  O  O33  1  0.29255600  0.14316100  0.32000400  1
  O  O34  1  0.31252400  0.60365000  0.20201800  1
  O  O35  1  0.33632400  0.60485100  0.79598300  1
  O  O36  1  0.45557300  0.37102500  0.36443400  1
  O  O37  1  0.49269800  0.42434600  0.68466300  1
  O  O38  1  0.50730200  0.92434600  0.81533700  1
  O  O39  1  0.54442700  0.87102500  0.13556600  1
  O  O40  1  0.66367600  0.10485100  0.70401700  1
  O  O41  1  0.68747600  0.10365000  0.29798200  1
  O  O42  1  0.70744400  0.64316100  0.17999600  1
  O  O43  1  0.70224700  0.56925900  0.79033800  1
  O  O44  1  0.69199500  0.59021800  0.57943600  1
  O  O45  1  0.68920500  0.11658500  0.91082100  1
  O  O46  1  0.70319600  0.20176400  0.51824300  1
  O  O47  1  0.79680400  0.79823600  0.01824300  1
  O  O48  1  0.81079500  0.88341500  0.41082100  1
  O  O49  1  0.80800500  0.40978200  0.07943600  1
  O  O50  1  0.79775300  0.43074100  0.29033800  1
  O  O51  1  0.79255600  0.35683900  0.67999600  1
  O  O52  1  0.81252400  0.89635000  0.79798200  1
  O  O53  1  0.83632400  0.89514900  0.20401700  1
  O  O54  1  0.95557300  0.12897500  0.63556600  1
  O  O55  1  0.99269800  0.07565400  0.31533700  1
