# generated using pymatgen
data_Li2Fe2(SiO3)3
_symmetry_space_group_name_H-M   'P 1'
_cell_length_a   10.13087515
_cell_length_b   10.13087515
_cell_length_c   12.32763500
_cell_angle_alpha   90.00000000
_cell_angle_beta   90.00000000
_cell_angle_gamma   119.99999447
_symmetry_Int_Tables_number   1
_chemical_formula_structural   Li2Fe2(SiO3)3
_chemical_formula_sum   'Li12 Fe12 Si18 O54'
_cell_volume   1095.73201209
_cell_formula_units_Z   6
loop_
 _symmetry_equiv_pos_site_id
 _symmetry_equiv_pos_as_xyz
  1  'x, y, z'
loop_
 _atom_site_type_symbol
 _atom_site_label
 _atom_site_symmetry_multiplicity
 _atom_site_fract_x
 _atom_site_fract_y
 _atom_site_fract_z
 _atom_site_occupancy
  Li  Li0  1  0.13939100  0.96951600  0.18611000  1
  Li  Li1  1  0.29587000  0.82237500  0.01431700  1
  Li  Li2  1  0.17762500  0.47349500  0.68098400  1
  Li  Li3  1  0.03048400  0.16987500  0.85277700  1
  Li  Li4  1  0.52650500  0.70413000  0.34765100  1
  Li  Li5  1  0.17389200  0.04516400  0.68755800  1
  Li  Li6  1  0.34315200  0.32846400  0.76159600  1
  Li  Li7  1  0.83012500  0.86060900  0.51944300  1
  Li  Li8  1  0.87127100  0.82610800  0.02089100  1
  Li  Li9  1  0.67153600  0.01468800  0.42826200  1
  Li  Li10  1  0.98531200  0.65684800  0.09492900  1
  Li  Li11  1  0.95483600  0.12872900  0.35422400  1
  Fe  Fe12  1  0.34156500  0.83664800  0.49620900  1
  Fe  Fe13  1  0.16335200  0.50491700  0.16287600  1
  Fe  Fe14  1  0.49508300  0.65843500  0.82954200  1
  Fe  Fe15  1  0.33725500  0.32554300  0.23903400  1
  Fe  Fe16  1  0.36698000  0.33146600  0.00101800  1
  Fe  Fe17  1  0.49249800  0.15931300  0.83906400  1
  Fe  Fe18  1  0.66681500  0.50750200  0.17239800  1
  Fe  Fe19  1  0.98828700  0.66274500  0.57236800  1
  Fe  Fe20  1  0.96448500  0.63302000  0.33435200  1
  Fe  Fe21  1  0.66853400  0.03551500  0.66768500  1
  Fe  Fe22  1  0.67445700  0.01171300  0.90570100  1
  Fe  Fe23  1  0.84068700  0.33318500  0.50573100  1
  Si  Si24  1  0.13458100  0.95267000  0.91640200  1
  Si  Si25  1  0.28797100  0.81287500  0.75870000  1
  Si  Si26  1  0.17798400  0.51008800  0.90241900  1
  Si  Si27  1  0.33210400  0.82201600  0.23575300  1
  Si  Si28  1  0.04733000  0.18191100  0.58306800  1
  Si  Si29  1  0.18712500  0.47509600  0.42536700  1
  Si  Si30  1  0.17600300  0.01036300  0.43600500  1
  Si  Si31  1  0.48991200  0.66789600  0.56908600  1
  Si  Si32  1  0.52490400  0.71202900  0.09203300  1
  Si  Si33  1  0.61849900  0.49576500  0.44681300  1
  Si  Si34  1  0.47346500  0.19157300  0.57198100  1
  Si  Si35  1  0.81808900  0.86541900  0.24973500  1
  Si  Si36  1  0.83435900  0.82399700  0.76933900  1
  Si  Si37  1  0.71810800  0.52653500  0.90531400  1
  Si  Si38  1  0.50423500  0.12273400  0.11348000  1
  Si  Si39  1  0.87726600  0.38150100  0.78014700  1
  Si  Si40  1  0.80842700  0.28189200  0.23864800  1
  Si  Si41  1  0.98963700  0.16564100  0.10267200  1
  O  O42  1  0.08633000  0.82321000  0.43763300  1
  O  O43  1  0.09583800  0.87817300  0.03575000  1
  O  O44  1  0.18434400  0.85395800  0.83762300  1
  O  O45  1  0.15003700  0.69999800  0.23116000  1
  O  O46  1  0.06005300  0.52570800  0.44149800  1
  O  O47  1  0.02264300  0.37714200  0.84134500  1
  O  O48  1  0.21974600  0.77585400  0.63629500  1
  O  O49  1  0.14568100  0.57424400  0.01248900  1
  O  O50  1  0.35449900  0.97735700  0.17467900  1
  O  O51  1  0.25837500  0.64843100  0.80978500  1
  O  O52  1  0.14604200  0.33038600  0.50429000  1
  O  O53  1  0.42856300  0.85431900  0.34582300  1
  O  O54  1  0.12182700  0.21766500  0.70241700  1
  O  O55  1  0.22414600  0.44389200  0.30296200  1
  O  O56  1  0.46565500  0.93994700  0.77483100  1
  O  O57  1  0.39005600  0.74162500  0.14311900  1
  O  O58  1  0.30000200  0.45004000  0.89782700  1
  O  O59  1  0.17679000  0.26312000  0.10429900  1
  O  O60  1  0.08022800  0.05085200  0.52746600  1
  O  O61  1  0.35156900  0.60994400  0.47645200  1
  O  O62  1  0.20130900  0.10140500  0.32448200  1
  O  O63  1  0.42575600  0.57143700  0.67915600  1
  O  O64  1  0.54996000  0.84996300  0.56449400  1
  O  O65  1  0.55610800  0.78025400  0.96962900  1
  O  O66  1  0.25688100  0.13163800  0.90187500  1
  O  O67  1  0.47429200  0.53434500  0.10816500  1
  O  O68  1  0.66961400  0.81565600  0.17095700  1
  O  O69  1  0.62285800  0.64550100  0.50801200  1
  O  O70  1  0.34076600  0.04966200  0.49602400  1
  O  O71  1  0.73688000  0.91367000  0.77096600  1
  O  O72  1  0.55166400  0.48836200  0.32381500  1
  O  O73  1  0.40260400  0.17869700  0.69234300  1
  O  O74  1  0.78233500  0.90416200  0.36908300  1
  O  O75  1  0.49474500  0.34625900  0.51416600  1
  O  O76  1  0.47798600  0.26818800  0.12670000  1
  O  O77  1  0.55083200  0.37731400  0.89626500  1
  O  O78  1  0.70889600  0.65923400  0.82935800  1
  O  O79  1  0.51163800  0.06330200  0.99048200  1
  O  O80  1  0.77609300  0.59739600  0.02567600  1
  O  O81  1  0.90009600  0.79869100  0.65781600  1
  O  O82  1  0.87475700  0.74311900  0.23520800  1
  O  O83  1  0.62268600  0.17351800  0.56293200  1
  O  O84  1  0.79020200  0.52201400  0.46003300  1
  O  O85  1  0.97062400  0.91977200  0.86079900  1
  O  O86  1  0.65374100  0.14848600  0.18083300  1
  O  O87  1  0.85151400  0.50525500  0.84749900  1
  O  O88  1  0.82648200  0.44916800  0.22959800  1
  O  O89  1  0.73181200  0.20979800  0.79336700  1
  O  O90  1  0.82130300  0.22390700  0.35901000  1
  O  O91  1  0.93669800  0.44833600  0.65714900  1
  O  O92  1  0.86836200  0.12524300  0.56854100  1
  O  O93  1  0.95033800  0.29110400  0.16269100  1
  O  O94  1  0.89859500  0.09990400  0.99114900  1
  O  O95  1  0.94914800  0.02937600  0.19413200  1
