# generated using pymatgen
data_Li4Mn7(PO4)6
_symmetry_space_group_name_H-M   'P 1'
_cell_length_a   6.63916800
_cell_length_b   8.30625638
_cell_length_c   9.74704766
_cell_angle_alpha   102.62277168
_cell_angle_beta   106.48257049
_cell_angle_gamma   101.13725253
_symmetry_Int_Tables_number   1
_chemical_formula_structural   Li4Mn7(PO4)6
_chemical_formula_sum   'Li4 Mn7 P6 O24'
_cell_volume   483.90892844
_cell_formula_units_Z   1
loop_
 _symmetry_equiv_pos_site_id
 _symmetry_equiv_pos_as_xyz
  1  'x, y, z'
loop_
 _atom_site_type_symbol
 _atom_site_label
 _atom_site_symmetry_multiplicity
 _atom_site_fract_x
 _atom_site_fract_y
 _atom_site_fract_z
 _atom_site_occupancy
  Li  Li0  1  0.44895500  0.90313600  0.88574300  1
  Li  Li1  1  0.31522000  0.42714900  0.66800800  1
  Li  Li2  1  0.26787400  0.50319400  0.39147300  1
  Li  Li3  1  0.69433200  0.57354400  0.33780000  1
  Mn  Mn4  1  0.07131900  0.75228500  0.54885200  1
  Mn  Mn5  1  0.27909600  0.80821600  0.27967000  1
  Mn  Mn6  1  0.01598900  0.00567900  0.01423700  1
  Mn  Mn7  1  0.66085700  0.56986800  0.91331600  1
  Mn  Mn8  1  0.34730100  0.42851400  0.08472200  1
  Mn  Mn9  1  0.72476600  0.20021100  0.71849900  1
  Mn  Mn10  1  0.91832700  0.25416800  0.45659900  1
  P  P11  1  0.09805000  0.59020500  0.83074400  1
  P  P12  1  0.23638500  0.14953400  0.77325700  1
  P  P13  1  0.59970400  0.77025200  0.62890200  1
  P  P14  1  0.39784600  0.22953600  0.37467900  1
  P  P15  1  0.76532500  0.85229300  0.22784100  1
  P  P16  1  0.90379200  0.40532200  0.16391200  1
  O  O17  1  0.12536400  0.77892100  0.91307400  1
  O  O18  1  0.07772200  0.55680300  0.66242200  1
  O  O19  1  0.24869900  0.96456300  0.72441300  1
  O  O20  1  0.03504900  0.18608100  0.66927300  1
  O  O21  1  0.22036200  0.17769200  0.93419200  1
  O  O22  1  0.30907400  0.53918200  0.90463000  1
  O  O23  1  0.11805600  0.53353200  0.16873900  1
  O  O24  1  0.37700700  0.75510900  0.50182400  1
  O  O25  1  0.25113900  0.29089900  0.46196700  1
  O  O26  1  0.45052500  0.26998400  0.77517600  1
  O  O27  1  0.54324400  0.63890800  0.71197400  1
  O  O28  1  0.69191200  0.94989000  0.74834800  1
  O  O29  1  0.27869900  0.05492000  0.25018800  1
  O  O30  1  0.45373500  0.37222200  0.29988400  1
  O  O31  1  0.54948900  0.73173700  0.22571600  1
  O  O32  1  0.75219100  0.72658300  0.54320200  1
  O  O33  1  0.60621600  0.21667900  0.49079900  1
  O  O34  1  0.89478800  0.46760300  0.84016100  1
  O  O35  1  0.69573300  0.45891200  0.09351800  1
  O  O36  1  0.77087600  0.82455400  0.06214400  1
  O  O37  1  0.96260100  0.80024800  0.32329400  1
  O  O38  1  0.77169500  0.03742900  0.28575700  1
  O  O39  1  0.93101300  0.43940500  0.33450700  1
  O  O40  1  0.89359300  0.22398200  0.08046400  1
