# generated using pymatgen
data_Li4V3P8O29
_symmetry_space_group_name_H-M   'P 1'
_cell_length_a   9.74220300
_cell_length_b   9.77317387
_cell_length_c   14.18125936
_cell_angle_alpha   90.81429904
_cell_angle_beta   89.68206331
_cell_angle_gamma   119.58216944
_symmetry_Int_Tables_number   1
_chemical_formula_structural   Li4V3P8O29
_chemical_formula_sum   'Li8 V6 P16 O58'
_cell_volume   1174.10496131
_cell_formula_units_Z   2
loop_
 _symmetry_equiv_pos_site_id
 _symmetry_equiv_pos_as_xyz
  1  'x, y, z'
loop_
 _atom_site_type_symbol
 _atom_site_label
 _atom_site_symmetry_multiplicity
 _atom_site_fract_x
 _atom_site_fract_y
 _atom_site_fract_z
 _atom_site_occupancy
  Li  Li0  1  0.68529800  0.77096200  0.05616700  1
  Li  Li1  1  0.09249300  0.31572700  0.06025800  1
  Li  Li2  1  0.76745400  0.67079200  0.44425500  1
  Li  Li3  1  0.23182000  0.33651300  0.55922700  1
  Li  Li4  1  0.91976700  0.68827900  0.93514400  1
  Li  Li5  1  0.32833300  0.09445700  0.44312000  1
  Li  Li6  1  0.77124500  0.09375400  0.93807500  1
  Li  Li7  1  0.95306500  0.98871100  0.50990600  1
  V  V8  1  0.56602400  0.56214700  0.25020400  1
  V  V9  1  0.43135100  0.42904500  0.75468400  1
  V  V10  1  0.00928400  0.57105500  0.74354800  1
  V  V11  1  0.99582200  0.43216500  0.25398800  1
  V  V12  1  0.43333500  0.99866900  0.25037300  1
  V  V13  1  0.56428500  0.99878400  0.74733400  1
  P  P14  1  0.22764900  0.91826300  0.83974300  1
  P  P15  1  0.08255700  0.77864500  0.33726100  1
  P  P16  1  0.69448200  0.91537000  0.34137300  1
  P  P17  1  0.33547400  0.66382900  0.13260300  1
  P  P18  1  0.33802600  0.66096200  0.63008300  1
  P  P19  1  0.68009100  0.77026500  0.84000100  1
  P  P20  1  0.77059900  0.68266600  0.65873800  1
  P  P21  1  0.08759400  0.32009100  0.84403400  1
  P  P22  1  0.91264300  0.67914600  0.15439900  1
  P  P23  1  0.22849500  0.31670900  0.34163200  1
  P  P24  1  0.31434000  0.22375800  0.16025400  1
  P  P25  1  0.66321200  0.33277800  0.37003800  1
  P  P26  1  0.67703400  0.34084200  0.86905300  1
  P  P27  1  0.30999000  0.08524200  0.65660300  1
  P  P28  1  0.91471500  0.22029300  0.66209200  1
  P  P29  1  0.76986600  0.08522700  0.15835700  1
  O  O30  1  0.22508000  0.02035400  0.56506100  1
  O  O31  1  0.25646400  0.92060400  0.33799200  1
  O  O32  1  0.98154900  0.74446000  0.06142100  1
  O  O33  1  0.08597700  0.74384400  0.83323700  1
  O  O34  1  0.38288300  0.91301700  0.82041500  1
  O  O35  1  0.34076800  0.81397400  0.18285100  1
  O  O36  1  0.53979700  0.92388300  0.33155900  1
  O  O37  1  0.75306300  0.99844700  0.06681300  1
  O  O38  1  0.66347100  0.91856600  0.84116500  1
  O  O39  1  0.18835100  0.66681700  0.67492200  1
  O  O40  1  0.08461000  0.62354900  0.32963900  1
  O  O41  1  0.48322600  0.80491100  0.67178500  1
  O  O42  1  0.35244900  0.67765900  0.02846900  1
  O  O43  1  0.32103500  0.64074400  0.52580700  1
  O  O44  1  0.48761400  0.66563200  0.17508600  1
  O  O45  1  0.09623200  0.47869500  0.82332500  1
  O  O46  1  0.18625000  0.51640900  0.16873300  1
  O  O47  1  0.65555000  0.73913200  0.33629900  1
  O  O48  1  0.79073100  0.79170700  0.74995600  1
  O  O49  1  0.78730500  0.77017600  0.56994700  1
  O  O50  1  0.75631800  0.75390500  0.92781900  1
  O  O51  1  0.51848000  0.62101900  0.82119700  1
  O  O52  1  0.32519200  0.50616200  0.67354800  1
  O  O53  1  0.74287500  0.65936900  0.16408700  1
  O  O54  1  0.38307700  0.47450900  0.32474600  1
  O  O55  1  0.08714800  0.34453100  0.33372800  1
  O  O56  1  0.01267500  0.79967900  0.23785400  1
  O  O57  1  0.99008300  0.79546800  0.41651300  1
  O  O58  1  0.00453800  0.20276000  0.58121000  1
  O  O59  1  0.91157500  0.65062100  0.66779200  1
  O  O60  1  0.61316800  0.52926700  0.67070700  1
  O  O61  1  0.25665900  0.34287700  0.83807400  1
  O  O62  1  0.67166200  0.48769900  0.32528500  1
  O  O63  1  0.47555300  0.37815200  0.17877300  1
  O  O64  1  0.23061900  0.23350900  0.07676500  1
  O  O65  1  0.23341000  0.24103200  0.43212100  1
  O  O66  1  0.21103100  0.20194400  0.25513400  1
  O  O67  1  0.33732300  0.25797800  0.66830200  1
  O  O68  1  0.82419900  0.48740100  0.82558300  1
  O  O69  1  0.90455400  0.52092200  0.17784500  1
  O  O70  1  0.52911300  0.34411300  0.82060300  1
  O  O71  1  0.67381200  0.35501100  0.97350100  1
  O  O72  1  0.65255500  0.34655200  0.47425900  1
  O  O73  1  0.50716800  0.18533100  0.33059200  1
  O  O74  1  0.92166200  0.38217100  0.66992600  1
  O  O75  1  0.80471700  0.32429600  0.32804600  1
  O  O76  1  0.34417700  0.08229900  0.16563500  1
  O  O77  1  0.19970900  0.99294200  0.74418800  1
  O  O78  1  0.22395300  0.00032200  0.92647500  1
  O  O79  1  0.46681100  0.08797200  0.66838200  1
  O  O80  1  0.67340900  0.18835000  0.83263800  1
  O  O81  1  0.61923300  0.09743400  0.18028000  1
  O  O82  1  0.91675300  0.24989400  0.16074000  1
  O  O83  1  0.00343300  0.24812600  0.93428300  1
  O  O84  1  0.99155800  0.20175900  0.75920100  1
  O  O85  1  0.74255500  0.08745500  0.66644400  1
  O  O86  1  0.79699800  0.99430000  0.42362600  1
  O  O87  1  0.78881800  0.98853300  0.24317100  1
