# generated using pymatgen
data_Li3V3P8O29
_symmetry_space_group_name_H-M   'P 1'
_cell_length_a   9.70328700
_cell_length_b   9.75847466
_cell_length_c   14.35659435
_cell_angle_alpha   90.63454220
_cell_angle_beta   89.92589290
_cell_angle_gamma   119.73590627
_symmetry_Int_Tables_number   1
_chemical_formula_structural   Li3V3P8O29
_chemical_formula_sum   'Li6 V6 P16 O58'
_cell_volume   1180.32270008
_cell_formula_units_Z   2
loop_
 _symmetry_equiv_pos_site_id
 _symmetry_equiv_pos_as_xyz
  1  'x, y, z'
loop_
 _atom_site_type_symbol
 _atom_site_label
 _atom_site_symmetry_multiplicity
 _atom_site_fract_x
 _atom_site_fract_y
 _atom_site_fract_z
 _atom_site_occupancy
  Li  Li0  1  0.67908000  0.90992100  0.55241600  1
  Li  Li1  1  0.09479100  0.33100800  0.06326500  1
  Li  Li2  1  0.23236500  0.32378100  0.55618400  1
  Li  Li3  1  0.90630200  0.67436400  0.94455200  1
  Li  Li4  1  0.00089200  0.00026700  0.01604400  1
  Li  Li5  1  0.02417500  0.96949600  0.49348900  1
  V  V6  1  0.56325000  0.56557600  0.24886800  1
  V  V7  1  0.43885800  0.43637500  0.75306200  1
  V  V8  1  0.00403200  0.56710100  0.74241700  1
  V  V9  1  0.99631300  0.43652000  0.25567500  1
  V  V10  1  0.43693100  0.99861400  0.24376800  1
  V  V11  1  0.55873300  0.00079800  0.75519800  1
  P  P12  1  0.21401500  0.91696900  0.84180000  1
  P  P13  1  0.08935000  0.78621700  0.33568800  1
  P  P14  1  0.69158800  0.91479900  0.34077100  1
  P  P15  1  0.32793800  0.66021000  0.13230900  1
  P  P16  1  0.33871800  0.66595700  0.63293500  1
  P  P17  1  0.69442400  0.78055700  0.84091400  1
  P  P18  1  0.77557800  0.69314800  0.65795100  1
  P  P19  1  0.08863100  0.31862500  0.84433400  1
  P  P20  1  0.91069100  0.68668200  0.15703700  1
  P  P21  1  0.22526400  0.31242100  0.34436700  1
  P  P22  1  0.30149200  0.21680500  0.16335000  1
  P  P23  1  0.66029300  0.33103400  0.36519300  1
  P  P24  1  0.67367900  0.34001100  0.86545500  1
  P  P25  1  0.30280700  0.08361900  0.65858300  1
  P  P26  1  0.91224100  0.21737600  0.66523000  1
  P  P27  1  0.78717600  0.08492000  0.16028600  1
  O  O28  1  0.20825300  0.00780100  0.57405400  1
  O  O29  1  0.26538600  0.91668500  0.32774300  1
  O  O30  1  0.97636700  0.76556000  0.06655400  1
  O  O31  1  0.08127000  0.74047800  0.83201800  1
  O  O32  1  0.37890400  0.92214700  0.82863600  1
  O  O33  1  0.33161800  0.81082700  0.17527800  1
  O  O34  1  0.53563600  0.91822900  0.32432800  1
  O  O35  1  0.81837200  0.00901400  0.07953400  1
  O  O36  1  0.65184800  0.91408200  0.83313800  1
  O  O37  1  0.18806600  0.66723000  0.67642000  1
  O  O38  1  0.08058100  0.62173400  0.32731600  1
  O  O39  1  0.48643900  0.81463800  0.67593400  1
  O  O40  1  0.32546200  0.65086300  0.02930000  1
  O  O41  1  0.33772100  0.66076200  0.52970200  1
  O  O42  1  0.47518400  0.66087800  0.17914700  1
  O  O43  1  0.08886600  0.47422700  0.82367000  1
  O  O44  1  0.17979600  0.51293800  0.17477600  1
  O  O45  1  0.65573400  0.74131900  0.32780200  1
  O  O46  1  0.79808200  0.79966600  0.74942100  1
  O  O47  1  0.78886100  0.78912900  0.57531900  1
  O  O48  1  0.79257400  0.79274100  0.92327000  1
  O  O49  1  0.53743700  0.61940500  0.82836200  1
  O  O50  1  0.33193200  0.51534900  0.67555800  1
  O  O51  1  0.73640300  0.64949300  0.16894000  1
  O  O52  1  0.38257600  0.46751400  0.32972600  1
  O  O53  1  0.08674000  0.34838500  0.32981000  1
  O  O54  1  0.00846000  0.80422200  0.24115700  1
  O  O55  1  0.00813300  0.80403800  0.41747400  1
  O  O56  1  0.00969800  0.21193700  0.58707000  1
  O  O57  1  0.91201600  0.65296600  0.66565500  1
  O  O58  1  0.61664300  0.53761900  0.67138300  1
  O  O59  1  0.25987300  0.34727300  0.82699400  1
  O  O60  1  0.65897400  0.47542900  0.31955800  1
  O  O61  1  0.45437300  0.37895900  0.17028900  1
  O  O62  1  0.18988400  0.19662800  0.08611300  1
  O  O63  1  0.20791600  0.23284400  0.43486000  1
  O  O64  1  0.20775200  0.19411100  0.26109200  1
  O  O65  1  0.34670200  0.26097200  0.66542900  1
  O  O66  1  0.81984500  0.48870300  0.82411000  1
  O  O67  1  0.91583000  0.53295800  0.17324400  1
  O  O68  1  0.52383100  0.33669900  0.81896600  1
  O  O69  1  0.67255600  0.34346300  0.96838600  1
  O  O70  1  0.66063100  0.32973200  0.46783100  1
  O  O71  1  0.52105700  0.18358600  0.31556900  1
  O  O72  1  0.91392600  0.37876900  0.67410800  1
  O  O73  1  0.81396600  0.33555900  0.32187200  1
  O  O74  1  0.34536800  0.08384500  0.16362200  1
  O  O75  1  0.19819400  0.00157600  0.75003000  1
  O  O76  1  0.19372200  0.99101900  0.92686800  1
  O  O77  1  0.45826800  0.07520200  0.67398400  1
  O  O78  1  0.66971200  0.18925900  0.81979000  1
  O  O79  1  0.62061600  0.07142400  0.16725000  1
  O  O80  1  0.91657700  0.26362600  0.16582600  1
  O  O81  1  0.02843800  0.24926900  0.93700300  1
  O  O82  1  0.98132200  0.19649300  0.76357700  1
  O  O83  1  0.73815300  0.08007800  0.66277800  1
  O  O84  1  0.77033600  0.98036900  0.43202800  1
  O  O85  1  0.80836400  0.01156400  0.25698100  1
