# generated using pymatgen
data_Li5Ti3V2(PO4)6
_symmetry_space_group_name_H-M   'P 1'
_cell_length_a   8.50057309
_cell_length_b   8.94753587
_cell_length_c   8.95735391
_cell_angle_alpha   59.79207275
_cell_angle_beta   58.71883275
_cell_angle_gamma   58.55384183
_symmetry_Int_Tables_number   1
_chemical_formula_structural   Li5Ti3V2(PO4)6
_chemical_formula_sum   'Li5 Ti3 V2 P6 O24'
_cell_volume   470.85914247
_cell_formula_units_Z   1
loop_
 _symmetry_equiv_pos_site_id
 _symmetry_equiv_pos_as_xyz
  1  'x, y, z'
loop_
 _atom_site_type_symbol
 _atom_site_label
 _atom_site_symmetry_multiplicity
 _atom_site_fract_x
 _atom_site_fract_y
 _atom_site_fract_z
 _atom_site_occupancy
  Li  Li0  1  0.52381700  0.16123000  0.15727900  1
  Li  Li1  1  0.25362300  0.85753700  0.64298900  1
  Li  Li2  1  0.71522400  0.14666100  0.33305100  1
  Li  Li3  1  0.71576200  0.80522800  0.14501100  1
  Li  Li4  1  0.71432600  0.33576900  0.80557100  1
  Ti  Ti5  1  0.06887200  0.64153500  0.64438300  1
  Ti  Ti6  1  0.43898200  0.85209100  0.85752400  1
  Ti  Ti7  1  0.95230200  0.34999100  0.34726400  1
  V  V8  1  0.99783300  0.00105200  0.00481800  1
  V  V9  1  0.49327700  0.49846400  0.50104300  1
  P  P10  1  0.25638300  0.24763700  0.55107300  1
  P  P11  1  0.25851400  0.94589800  0.24364000  1
  P  P12  1  0.25707500  0.55152900  0.94524500  1
  P  P13  1  0.75551100  0.45251800  0.04564600  1
  P  P14  1  0.76287000  0.04467000  0.74534600  1
  P  P15  1  0.74509600  0.74816500  0.45442300  1
  O  O16  1  0.07302900  0.10690600  0.30836300  1
  O  O17  1  0.07052000  0.51403800  0.10326900  1
  O  O18  1  0.07073700  0.31338500  0.50860100  1
  O  O19  1  0.22849500  0.08670000  0.74160500  1
  O  O20  1  0.44639600  0.18484100  0.40003100  1
  O  O21  1  0.26394800  0.40221600  0.57947000  1
  O  O22  1  0.23039400  0.92867800  0.09429500  1
  O  O23  1  0.26741000  0.75830200  0.40915600  1
  O  O24  1  0.56750300  0.60960300  0.00639800  1
  O  O25  1  0.27169700  0.58153200  0.74866500  1
  O  O26  1  0.78144700  0.26347100  0.05453400  1
  O  O27  1  0.58568900  0.99756300  0.80470700  1
  O  O28  1  0.44915400  0.97187900  0.18006300  1
  O  O29  1  0.22619400  0.75039900  0.92412700  1
  O  O30  1  0.72953800  0.42700400  0.24392100  1
  O  O31  1  0.44754100  0.40015800  0.97058000  1
  O  O32  1  0.73438300  0.24256300  0.59485300  1
  O  O33  1  0.77932500  0.05996000  0.90201700  1
  O  O34  1  0.73160900  0.59752100  0.42172400  1
  O  O35  1  0.54791800  0.80927100  0.60699200  1
  O  O36  1  0.77684800  0.90347800  0.26550100  1
  O  O37  1  0.91797700  0.67517500  0.51463700  1
  O  O38  1  0.93555900  0.50348300  0.89551400  1
  O  O39  1  0.95722100  0.89490200  0.67366700  1
