# generated using pymatgen
data_Li3CrP2O9
_symmetry_space_group_name_H-M   'P 1'
_cell_length_a   8.83854700
_cell_length_b   6.82362400
_cell_length_c   11.68512585
_cell_angle_alpha   89.46476665
_cell_angle_beta   90.00000000
_cell_angle_gamma   90.00000000
_symmetry_Int_Tables_number   1
_chemical_formula_structural   Li3CrP2O9
_chemical_formula_sum   'Li12 Cr4 P8 O36'
_cell_volume   704.70995757
_cell_formula_units_Z   4
loop_
 _symmetry_equiv_pos_site_id
 _symmetry_equiv_pos_as_xyz
  1  'x, y, z'
loop_
 _atom_site_type_symbol
 _atom_site_label
 _atom_site_symmetry_multiplicity
 _atom_site_fract_x
 _atom_site_fract_y
 _atom_site_fract_z
 _atom_site_occupancy
  Li  Li0  1  0.38974300  0.39279100  0.92055000  1
  Li  Li1  1  0.24518700  0.31668600  0.50808300  1
  Li  Li2  1  0.90559200  0.24058400  0.25652900  1
  Li  Li3  1  0.09431600  0.26003000  0.75637500  1
  Li  Li4  1  0.75457200  0.18353900  0.00901800  1
  Li  Li5  1  0.61062300  0.10709900  0.42086200  1
  Li  Li6  1  0.11062300  0.89290100  0.57913800  1
  Li  Li7  1  0.25457200  0.81646100  0.99098200  1
  Li  Li8  1  0.59431600  0.73997000  0.24362500  1
  Li  Li9  1  0.40559200  0.75941600  0.74347100  1
  Li  Li10  1  0.74518700  0.68331400  0.49191700  1
  Li  Li11  1  0.88974300  0.60720900  0.07945000  1
  Cr  Cr12  1  0.75517400  0.48103200  0.75486700  1
  Cr  Cr13  1  0.24531500  0.02067100  0.25331900  1
  Cr  Cr14  1  0.74531500  0.97932900  0.74668100  1
  Cr  Cr15  1  0.25517400  0.51896800  0.24513300  1
  P  P16  1  0.12751400  0.26919700  0.03820300  1
  P  P17  1  0.53648200  0.26436600  0.16842900  1
  P  P18  1  0.46361900  0.23528200  0.66904900  1
  P  P19  1  0.87193500  0.23081000  0.53850300  1
  P  P20  1  0.37193500  0.76919000  0.46149700  1
  P  P21  1  0.96361900  0.76471800  0.33095100  1
  P  P22  1  0.03648200  0.73563400  0.83157100  1
  P  P23  1  0.62751400  0.73080300  0.96179700  1
  O  O24  1  0.21736300  0.45102500  0.08769700  1
  O  O25  1  0.46921800  0.45595400  0.22329100  1
  O  O26  1  0.80173500  0.42234600  0.59112300  1
  O  O27  1  0.53644400  0.41188200  0.73507500  1
  O  O28  1  0.95988900  0.28968700  0.06916200  1
  O  O29  1  0.20717500  0.28454700  0.29611400  1
  O  O30  1  0.70471500  0.25562200  0.19385600  1
  O  O31  1  0.16865100  0.26655100  0.91201600  1
  O  O32  1  0.48779800  0.24570500  0.53931600  1
  O  O33  1  0.51264000  0.25331300  0.03896700  1
  O  O34  1  0.83158500  0.23421600  0.41190700  1
  O  O35  1  0.29501400  0.24255900  0.69336100  1
  O  O36  1  0.79237800  0.23661700  0.79301600  1
  O  O37  1  0.03980700  0.20798600  0.56919000  1
  O  O38  1  0.45939300  0.08599500  0.23345400  1
  O  O39  1  0.19862500  0.07671100  0.09349600  1
  O  O40  1  0.53314500  0.04135900  0.72298400  1
  O  O41  1  0.78408200  0.04559700  0.58909700  1
  O  O42  1  0.28408200  0.95440300  0.41090300  1
  O  O43  1  0.03314500  0.95864100  0.27701600  1
  O  O44  1  0.69862500  0.92328900  0.90650400  1
  O  O45  1  0.95939300  0.91400500  0.76654600  1
  O  O46  1  0.53980700  0.79201400  0.43081000  1
  O  O47  1  0.29237800  0.76338300  0.20698400  1
  O  O48  1  0.79501400  0.75744100  0.30663900  1
  O  O49  1  0.33158500  0.76578400  0.58809300  1
  O  O50  1  0.01264000  0.74668700  0.96103300  1
  O  O51  1  0.66865100  0.73344900  0.08798400  1
  O  O52  1  0.98779800  0.75429500  0.46068400  1
  O  O53  1  0.20471500  0.74437800  0.80614400  1
  O  O54  1  0.70717500  0.71545300  0.70388600  1
  O  O55  1  0.45988900  0.71031300  0.93083800  1
  O  O56  1  0.03644400  0.58811800  0.26492500  1
  O  O57  1  0.30173500  0.57765400  0.40887700  1
  O  O58  1  0.96921800  0.54404600  0.77670900  1
  O  O59  1  0.71736300  0.54897500  0.91230300  1
