# generated using pymatgen
data_Li5V3P8O29
_symmetry_space_group_name_H-M   'P 1'
_cell_length_a   9.77913119
_cell_length_b   9.77913119
_cell_length_c   14.07686925
_cell_angle_alpha   89.72555713
_cell_angle_beta   89.72555713
_cell_angle_gamma   59.97201237
_symmetry_Int_Tables_number   1
_chemical_formula_structural   Li5V3P8O29
_chemical_formula_sum   'Li10 V6 P16 O58'
_cell_volume   1165.48868693
_cell_formula_units_Z   2
loop_
 _symmetry_equiv_pos_site_id
 _symmetry_equiv_pos_as_xyz
  1  'x, y, z'
loop_
 _atom_site_type_symbol
 _atom_site_label
 _atom_site_symmetry_multiplicity
 _atom_site_fract_x
 _atom_site_fract_y
 _atom_site_fract_z
 _atom_site_occupancy
  Li  Li0  1  0.66630900  0.23685300  0.05897000  1
  Li  Li1  1  0.66401200  0.09655100  0.55972500  1
  Li  Li2  1  0.23685300  0.66630900  0.55897000  1
  Li  Li3  1  0.09655100  0.66401200  0.05972500  1
  Li  Li4  1  0.23642000  0.10080700  0.06015500  1
  Li  Li5  1  0.10080700  0.23642000  0.56015500  1
  Li  Li6  1  0.76511900  0.33439600  0.44018300  1
  Li  Li7  1  0.33439600  0.76511900  0.94018300  1
  Li  Li8  1  0.95610600  0.02138400  0.99465900  1
  Li  Li9  1  0.02138400  0.95610600  0.49465900  1
  V  V10  1  0.99728200  0.56565700  0.25112600  1
  V  V11  1  0.99962300  0.43714700  0.75214200  1
  V  V12  1  0.56565700  0.99728200  0.75112600  1
  V  V13  1  0.43714700  0.99962300  0.25214200  1
  V  V14  1  0.56516900  0.43589200  0.24637000  1
  V  V15  1  0.43589200  0.56516900  0.74637000  1
  P  P16  1  0.68630700  0.22459000  0.84104200  1
  P  P17  1  0.68915000  0.08865900  0.34503900  1
  P  P18  1  0.22459000  0.68630700  0.34104200  1
  P  P19  1  0.33147900  0.33438700  0.13095500  1
  P  P20  1  0.33438700  0.33147900  0.63095500  1
  P  P21  1  0.08865900  0.68915000  0.84503900  1
  P  P22  1  0.91760500  0.78013600  0.66182400  1
  P  P23  1  0.22708300  0.08716400  0.84210200  1
  P  P24  1  0.78013600  0.91760500  0.16182400  1
  P  P25  1  0.08716400  0.22708300  0.34210200  1
  P  P26  1  0.91645700  0.30728100  0.15775700  1
  P  P27  1  0.66840000  0.66438600  0.36877900  1
  P  P28  1  0.66438600  0.66840000  0.86877900  1
  P  P29  1  0.77443900  0.31584400  0.65950600  1
  P  P30  1  0.30728100  0.91645700  0.65775700  1
  P  P31  1  0.31584400  0.77443900  0.15950600  1
  O  O32  1  0.76971900  0.23151500  0.57101100  1
  O  O33  1  0.66355600  0.25914800  0.33309300  1
  O  O34  1  0.79892800  0.01023600  0.08191200  1
  O  O35  1  0.65706500  0.08255700  0.82902300  1
  O  O36  1  0.53313900  0.38153400  0.83056100  1
  O  O37  1  0.48751100  0.32569600  0.16762400  1
  O  O38  1  0.38153400  0.53313900  0.33056100  1
  O  O39  1  0.23151500  0.76971900  0.07101100  1
  O  O40  1  0.25914800  0.66355600  0.83309300  1
  O  O41  1  0.48904600  0.18667700  0.67288100  1
  O  O42  1  0.53021500  0.09546600  0.33135600  1
  O  O43  1  0.32569600  0.48751100  0.66762400  1
  O  O44  1  0.32475100  0.33938500  0.02476900  1
  O  O45  1  0.33938500  0.32475100  0.52476900  1
  O  O46  1  0.18667700  0.48904600  0.17288100  1
  O  O47  1  0.38380400  0.08805400  0.82655100  1
  O  O48  1  0.32613100  0.18801000  0.17315800  1
  O  O49  1  0.08255700  0.65706500  0.32902300  1
  O  O50  1  0.98681800  0.80585200  0.76000300  1
  O  O51  1  0.01023600  0.79892800  0.58191200  1
  O  O52  1  0.01853700  0.77317000  0.93778500  1
  O  O53  1  0.09546600  0.53021500  0.83135600  1
  O  O54  1  0.18801000  0.32613100  0.67315800  1
  O  O55  1  0.91808000  0.74321700  0.15988800  1
  O  O56  1  0.08805400  0.38380400  0.32655100  1
  O  O57  1  0.25378100  0.08886500  0.33884400  1
  O  O58  1  0.80585200  0.98681800  0.26000300  1
  O  O59  1  0.77317000  0.01853700  0.43778500  1
  O  O60  1  0.20104000  0.01194200  0.57637900  1
  O  O61  1  0.74321700  0.91808000  0.65988800  1
  O  O62  1  0.92618200  0.61876400  0.66996500  1
  O  O63  1  0.08886500  0.25378100  0.83884400  1
  O  O64  1  0.81423100  0.66650700  0.31804200  1
  O  O65  1  0.92101600  0.46292800  0.16926300  1
  O  O66  1  0.01194200  0.20104000  0.07637900  1
  O  O67  1  0.99974600  0.23177800  0.43392500  1
  O  O68  1  0.98670300  0.21120200  0.25679500  1
  O  O69  1  0.91742400  0.34144700  0.65891700  1
  O  O70  1  0.66650700  0.81423100  0.81804200  1
  O  O71  1  0.61876400  0.92618200  0.16996500  1
  O  O72  1  0.80627200  0.52204600  0.82301900  1
  O  O73  1  0.65758600  0.68240500  0.97369900  1
  O  O74  1  0.68240500  0.65758600  0.47369900  1
  O  O75  1  0.67388700  0.51275400  0.33062200  1
  O  O76  1  0.46292800  0.92101600  0.66926300  1
  O  O77  1  0.52204600  0.80627200  0.32301900  1
  O  O78  1  0.74374600  0.34223900  0.15494300  1
  O  O79  1  0.79887800  0.20673600  0.75172200  1
  O  O80  1  0.77365100  0.20436800  0.93197600  1
  O  O81  1  0.61852000  0.47352000  0.67391600  1
  O  O82  1  0.51275400  0.67388700  0.83062200  1
  O  O83  1  0.47352000  0.61852000  0.17391600  1
  O  O84  1  0.34144700  0.91742400  0.15891700  1
  O  O85  1  0.23177800  0.99974600  0.93392500  1
  O  O86  1  0.21120200  0.98670300  0.75679500  1
  O  O87  1  0.34223900  0.74374600  0.65494300  1
  O  O88  1  0.20436800  0.77365100  0.43197600  1
  O  O89  1  0.20673600  0.79887800  0.25172200  1
