# generated using pymatgen
data_Li2V3P4H4O19
_symmetry_space_group_name_H-M   'P 1'
_cell_length_a   9.25708500
_cell_length_b   8.82335400
_cell_length_c   10.59314222
_cell_angle_alpha   64.78754542
_cell_angle_beta   90.00000000
_cell_angle_gamma   90.00000000
_symmetry_Int_Tables_number   1
_chemical_formula_structural   Li2V3P4H4O19
_chemical_formula_sum   'Li4 V6 P8 H8 O38'
_cell_volume   782.80555595
_cell_formula_units_Z   2
loop_
 _symmetry_equiv_pos_site_id
 _symmetry_equiv_pos_as_xyz
  1  'x, y, z'
loop_
 _atom_site_type_symbol
 _atom_site_label
 _atom_site_symmetry_multiplicity
 _atom_site_fract_x
 _atom_site_fract_y
 _atom_site_fract_z
 _atom_site_occupancy
  Li  Li0  1  0.46996600  0.24062000  0.00462800  1
  Li  Li1  1  0.53003400  0.74062000  0.00462800  1
  Li  Li2  1  0.21971200  0.24941000  0.54061700  1
  Li  Li3  1  0.78028800  0.74941000  0.54061700  1
  V  V4  1  0.24674500  0.11751500  0.21095700  1
  V  V5  1  0.75325500  0.61751500  0.21095700  1
  V  V6  1  0.74435100  0.22804100  0.50496100  1
  V  V7  1  0.25564900  0.72804100  0.50496100  1
  V  V8  1  0.24372400  0.36243300  0.82110300  1
  V  V9  1  0.75627600  0.86243300  0.82110300  1
  P  P10  1  0.95464400  0.30383600  0.23716000  1
  P  P11  1  0.49914900  0.35089500  0.26172700  1
  P  P12  1  0.04535600  0.80383600  0.23716000  1
  P  P13  1  0.50085100  0.85089500  0.26172700  1
  P  P14  1  0.50274300  0.14949000  0.73640100  1
  P  P15  1  0.95535000  0.19960300  0.75495100  1
  P  P16  1  0.49725700  0.64949000  0.73640100  1
  P  P17  1  0.04465000  0.69960300  0.75495100  1
  H  H18  1  0.92851900  0.13543100  0.14029500  1
  H  H19  1  0.59659400  0.02084500  0.34917200  1
  H  H20  1  0.07148100  0.63543100  0.14029500  1
  H  H21  1  0.40340600  0.52084500  0.34917200  1
  H  H22  1  0.59765400  0.48042600  0.64706100  1
  H  H23  1  0.93142000  0.37001000  0.85255000  1
  H  H24  1  0.40234600  0.98042600  0.64706100  1
  H  H25  1  0.06858000  0.87001000  0.85255000  1
  O  O26  1  0.23377600  0.24656000  0.99730000  1
  O  O27  1  0.87594700  0.23427900  0.13971400  1
  O  O28  1  0.76622400  0.74656000  0.99730000  1
  O  O29  1  0.41145100  0.27785100  0.17812000  1
  O  O30  1  0.58700700  0.49809000  0.15580400  1
  O  O31  1  0.11926800  0.28049000  0.23360100  1
  O  O32  1  0.92159400  0.49303700  0.17869700  1
  O  O33  1  0.12405300  0.73427900  0.13971400  1
  O  O34  1  0.58854900  0.77785100  0.17812000  1
  O  O35  1  0.59393400  0.21073800  0.36833800  1
  O  O36  1  0.90219200  0.21053800  0.38793800  1
  O  O37  1  0.38561400  0.41009200  0.34643200  1
  O  O38  1  0.41299300  0.99809000  0.15580400  1
  O  O39  1  0.88073200  0.78049000  0.23360100  1
  O  O40  1  0.07840600  0.99303700  0.17869700  1
  O  O41  1  0.73195900  0.47911900  0.38183900  1
  O  O42  1  0.40606600  0.71073800  0.36833800  1
  O  O43  1  0.09780800  0.71053800  0.38793800  1
  O  O44  1  0.73042700  0.01712900  0.61502600  1
  O  O45  1  0.61438600  0.91009200  0.34643200  1
  O  O46  1  0.38255800  0.08527300  0.65885200  1
  O  O47  1  0.26804100  0.97911900  0.38183900  1
  O  O48  1  0.89847400  0.28666900  0.60564700  1
  O  O49  1  0.59388900  0.28599500  0.62310800  1
  O  O50  1  0.26957300  0.51712900  0.61502600  1
  O  O51  1  0.92504100  0.00947100  0.81930900  1
  O  O52  1  0.12106800  0.22974900  0.74841900  1
  O  O53  1  0.59115500  0.00427300  0.84285100  1
  O  O54  1  0.61744200  0.58527300  0.65885200  1
  O  O55  1  0.10152600  0.78666900  0.60564700  1
  O  O56  1  0.40611100  0.78599500  0.62310800  1
  O  O57  1  0.41745300  0.22700900  0.81725300  1
  O  O58  1  0.88045000  0.26995100  0.85321500  1
  O  O59  1  0.07495900  0.50947100  0.81930900  1
  O  O60  1  0.87893200  0.72974900  0.74841900  1
  O  O61  1  0.40884500  0.50427300  0.84285100  1
  O  O62  1  0.58254700  0.72700900  0.81725300  1
  O  O63  1  0.11955000  0.76995100  0.85321500  1
