# generated using pymatgen
data_LiMnPO4
_symmetry_space_group_name_H-M   'P 1'
_cell_length_a   5.89877200
_cell_length_b   7.66723700
_cell_length_c   13.95145500
_cell_angle_alpha   90.00000000
_cell_angle_beta   90.00000000
_cell_angle_gamma   90.00000000
_symmetry_Int_Tables_number   1
_chemical_formula_structural   LiMnPO4
_chemical_formula_sum   'Li8 Mn8 P8 O32'
_cell_volume   630.98640261
_cell_formula_units_Z   8
loop_
 _symmetry_equiv_pos_site_id
 _symmetry_equiv_pos_as_xyz
  1  'x, y, z'
loop_
 _atom_site_type_symbol
 _atom_site_label
 _atom_site_symmetry_multiplicity
 _atom_site_fract_x
 _atom_site_fract_y
 _atom_site_fract_z
 _atom_site_occupancy
  Li  Li0  1  0.41854600  0.17015500  0.52721400  1
  Li  Li1  1  0.91854600  0.17015500  0.97278600  1
  Li  Li2  1  0.41854600  0.32984500  0.02721400  1
  Li  Li3  1  0.91854600  0.32984500  0.47278600  1
  Li  Li4  1  0.08145400  0.67015500  0.52721400  1
  Li  Li5  1  0.58145400  0.67015500  0.97278600  1
  Li  Li6  1  0.08145400  0.82984500  0.02721400  1
  Li  Li7  1  0.58145400  0.82984500  0.47278600  1
  Mn  Mn8  1  0.14802800  0.18075100  0.20769300  1
  Mn  Mn9  1  0.64802800  0.18075100  0.29230700  1
  Mn  Mn10  1  0.64802800  0.31924900  0.79230700  1
  Mn  Mn11  1  0.14802800  0.31924900  0.70769300  1
  Mn  Mn12  1  0.35197200  0.68075100  0.20769300  1
  Mn  Mn13  1  0.85197200  0.68075100  0.29230700  1
  Mn  Mn14  1  0.35197200  0.81924900  0.70769300  1
  Mn  Mn15  1  0.85197200  0.81924900  0.79230700  1
  P  P16  1  0.89213500  0.03799400  0.62582400  1
  P  P17  1  0.39213500  0.03799400  0.87417600  1
  P  P18  1  0.89213500  0.46200600  0.12582400  1
  P  P19  1  0.39213500  0.46200600  0.37417600  1
  P  P20  1  0.60786500  0.53799400  0.62582400  1
  P  P21  1  0.10786500  0.53799400  0.87417600  1
  P  P22  1  0.60786500  0.96200600  0.12582400  1
  P  P23  1  0.10786500  0.96200600  0.37417600  1
  O  O24  1  0.82511000  0.98762300  0.06864500  1
  O  O25  1  0.32511000  0.98762300  0.43135500  1
  O  O26  1  0.33849700  0.09915500  0.76802500  1
  O  O27  1  0.83849700  0.09915500  0.73197500  1
  O  O28  1  0.47872200  0.13887600  0.14265000  1
  O  O29  1  0.97872200  0.13887600  0.35735000  1
  O  O30  1  0.05501300  0.17724500  0.58222200  1
  O  O31  1  0.55501300  0.17724500  0.91777800  1
  O  O32  1  0.05501300  0.32275500  0.08222200  1
  O  O33  1  0.55501300  0.32275500  0.41777800  1
  O  O34  1  0.47872200  0.36112400  0.64265000  1
  O  O35  1  0.97872200  0.36112400  0.85735000  1
  O  O36  1  0.83849700  0.40084500  0.23197500  1
  O  O37  1  0.33849700  0.40084500  0.26802500  1
  O  O38  1  0.82511000  0.51237700  0.56864500  1
  O  O39  1  0.32511000  0.51237700  0.93135500  1
  O  O40  1  0.17489000  0.48762300  0.43135500  1
  O  O41  1  0.67489000  0.48762300  0.06864500  1
  O  O42  1  0.66150300  0.59915500  0.73197500  1
  O  O43  1  0.16150300  0.59915500  0.76802500  1
  O  O44  1  0.02127800  0.63887600  0.14265000  1
  O  O45  1  0.52127800  0.63887600  0.35735000  1
  O  O46  1  0.44498700  0.67724500  0.58222200  1
  O  O47  1  0.94498700  0.67724500  0.91777800  1
  O  O48  1  0.44498700  0.82275500  0.08222200  1
  O  O49  1  0.94498700  0.82275500  0.41777800  1
  O  O50  1  0.02127800  0.86112400  0.64265000  1
  O  O51  1  0.52127800  0.86112400  0.85735000  1
  O  O52  1  0.66150300  0.90084500  0.23197500  1
  O  O53  1  0.16150300  0.90084500  0.26802500  1
  O  O54  1  0.67489000  0.01237700  0.56864500  1
  O  O55  1  0.17489000  0.01237700  0.93135500  1
