# generated using pymatgen
data_Li2MnSiO4
_symmetry_space_group_name_H-M   'P 1'
_cell_length_a   5.09114300
_cell_length_b   6.50751200
_cell_length_c   11.02492114
_cell_angle_alpha   88.77271792
_cell_angle_beta   90.00000000
_cell_angle_gamma   90.00000000
_symmetry_Int_Tables_number   1
_chemical_formula_structural   Li2MnSiO4
_chemical_formula_sum   'Li8 Mn4 Si4 O16'
_cell_volume   365.17927788
_cell_formula_units_Z   4
loop_
 _symmetry_equiv_pos_site_id
 _symmetry_equiv_pos_as_xyz
  1  'x, y, z'
loop_
 _atom_site_type_symbol
 _atom_site_label
 _atom_site_symmetry_multiplicity
 _atom_site_fract_x
 _atom_site_fract_y
 _atom_site_fract_z
 _atom_site_occupancy
  Li  Li0  1  0.31343700  0.00053100  0.58693300  1
  Li  Li1  1  0.18656300  0.00053100  0.08693300  1
  Li  Li2  1  0.81285200  0.78011800  0.67166900  1
  Li  Li3  1  0.68714800  0.78011800  0.17166900  1
  Li  Li4  1  0.31285200  0.21988200  0.82833100  1
  Li  Li5  1  0.18714800  0.21988200  0.32833100  1
  Li  Li6  1  0.81343700  0.99946900  0.91306700  1
  Li  Li7  1  0.68656300  0.99946900  0.41306700  1
  Mn  Mn8  1  0.79610100  0.49147900  0.90212200  1
  Mn  Mn9  1  0.70389900  0.49147900  0.40212200  1
  Mn  Mn10  1  0.29610100  0.50852100  0.59787800  1
  Mn  Mn11  1  0.20389900  0.50852100  0.09787800  1
  Si  Si12  1  0.31466500  0.76267900  0.83819000  1
  Si  Si13  1  0.18533500  0.76267900  0.33819000  1
  Si  Si14  1  0.81466500  0.23732100  0.66181000  1
  Si  Si15  1  0.68533500  0.23732100  0.16181000  1
  O  O16  1  0.20570700  0.96126900  0.90964100  1
  O  O17  1  0.29429300  0.96126900  0.40964100  1
  O  O18  1  0.64002000  0.75817800  0.83545300  1
  O  O19  1  0.85998000  0.75817800  0.33545300  1
  O  O20  1  0.20332700  0.75956900  0.69653200  1
  O  O21  1  0.29667300  0.75956900  0.19653200  1
  O  O22  1  0.21739700  0.53936700  0.90650700  1
  O  O23  1  0.28260300  0.53936700  0.40650700  1
  O  O24  1  0.71739700  0.46063300  0.59349300  1
  O  O25  1  0.78260300  0.46063300  0.09349300  1
  O  O26  1  0.70332700  0.24043100  0.80346800  1
  O  O27  1  0.79667300  0.24043100  0.30346800  1
  O  O28  1  0.14002000  0.24182200  0.66454700  1
  O  O29  1  0.35998000  0.24182200  0.16454700  1
  O  O30  1  0.70570700  0.03873100  0.59035900  1
  O  O31  1  0.79429300  0.03873100  0.09035900  1
