# generated using pymatgen
data_Li2Cr(PO3)5
_symmetry_space_group_name_H-M   'P 1'
_cell_length_a   6.71896052
_cell_length_b   6.71896052
_cell_length_c   13.49164224
_cell_angle_alpha   83.10257658
_cell_angle_beta   83.10257658
_cell_angle_gamma   111.22424376
_symmetry_Int_Tables_number   1
_chemical_formula_structural   Li2Cr(PO3)5
_chemical_formula_sum   'Li4 Cr2 P10 O30'
_cell_volume   554.77638274
_cell_formula_units_Z   2
loop_
 _symmetry_equiv_pos_site_id
 _symmetry_equiv_pos_as_xyz
  1  'x, y, z'
loop_
 _atom_site_type_symbol
 _atom_site_label
 _atom_site_symmetry_multiplicity
 _atom_site_fract_x
 _atom_site_fract_y
 _atom_site_fract_z
 _atom_site_occupancy
  Li  Li0  1  0.77037600  0.26770800  0.72338400  1
  Li  Li1  1  0.26770800  0.77037600  0.22338400  1
  Li  Li2  1  0.18882700  0.47283300  0.56468700  1
  Li  Li3  1  0.47283300  0.18882700  0.06468700  1
  Cr  Cr4  1  0.18264200  0.91425300  0.77744800  1
  Cr  Cr5  1  0.91425300  0.18264200  0.27744800  1
  P  P6  1  0.34143000  0.95898400  0.52979800  1
  P  P7  1  0.70746700  0.58465000  0.55719300  1
  P  P8  1  0.62177500  0.81044500  0.83113400  1
  P  P9  1  0.95898400  0.34143000  0.02979800  1
  P  P10  1  0.58465000  0.70746700  0.05719300  1
  P  P11  1  0.81044500  0.62177500  0.33113400  1
  P  P12  1  0.82179500  0.08586700  0.52779500  1
  P  P13  1  0.08586700  0.82179500  0.02779500  1
  P  P14  1  0.23477800  0.42319000  0.82803600  1
  P  P15  1  0.42319000  0.23477800  0.32803600  1
  O  O16  1  0.85699700  0.85329200  0.79827300  1
  O  O17  1  0.85329200  0.85699700  0.29827300  1
  O  O18  1  0.82027100  0.52015500  0.63533600  1
  O  O19  1  0.52015500  0.82027100  0.13533600  1
  O  O20  1  0.79129000  0.84330600  0.54054000  1
  O  O21  1  0.84330600  0.79129000  0.04054000  1
  O  O22  1  0.56558100  0.82709500  0.94656000  1
  O  O23  1  0.82709500  0.56558100  0.44656000  1
  O  O24  1  0.52967700  0.95703500  0.77176000  1
  O  O25  1  0.95703500  0.52967700  0.27176000  1
  O  O26  1  0.76315700  0.30718800  0.98262400  1
  O  O27  1  0.30718800  0.76315700  0.48262400  1
  O  O28  1  0.19305800  0.91837400  0.91865600  1
  O  O29  1  0.46876200  0.47972000  0.56680100  1
  O  O30  1  0.91837400  0.19305800  0.41865600  1
  O  O31  1  0.48962000  0.55970000  0.82457900  1
  O  O32  1  0.47972000  0.46876200  0.06680100  1
  O  O33  1  0.55970000  0.48962000  0.32457900  1
  O  O34  1  0.94258100  0.19657300  0.60397100  1
  O  O35  1  0.19657300  0.94258100  0.10397100  1
  O  O36  1  0.58188400  0.08066800  0.55090200  1
  O  O37  1  0.08066800  0.58188400  0.05090200  1
  O  O38  1  0.13244400  0.57997000  0.79022600  1
  O  O39  1  0.57997000  0.13244400  0.29022600  1
  O  O40  1  0.14484500  0.32183100  0.94627100  1
  O  O41  1  0.32183100  0.14484500  0.44627100  1
  O  O42  1  0.22165000  0.24053900  0.77090600  1
  O  O43  1  0.24053900  0.22165000  0.27090600  1
  O  O44  1  0.20020600  0.94029200  0.62892100  1
  O  O45  1  0.94029200  0.20020600  0.12892100  1
