# generated using pymatgen
data_LiSiBiO4
_symmetry_space_group_name_H-M   'P 1'
_cell_length_a   7.02335000
_cell_length_b   9.55009400
_cell_length_c   19.19056025
_cell_angle_alpha   60.67320478
_cell_angle_beta   90.00000000
_cell_angle_gamma   90.00000000
_symmetry_Int_Tables_number   1
_chemical_formula_structural   LiSiBiO4
_chemical_formula_sum   'Li12 Si12 Bi12 O48'
_cell_volume   1122.21625890
_cell_formula_units_Z   12
loop_
 _symmetry_equiv_pos_site_id
 _symmetry_equiv_pos_as_xyz
  1  'x, y, z'
loop_
 _atom_site_type_symbol
 _atom_site_label
 _atom_site_symmetry_multiplicity
 _atom_site_fract_x
 _atom_site_fract_y
 _atom_site_fract_z
 _atom_site_occupancy
  Li  Li0  1  0.99997200  0.68246200  0.08051400  1
  Li  Li1  1  0.01159500  0.32939300  0.41554600  1
  Li  Li2  1  0.14986200  0.99953300  0.74825300  1
  Li  Li3  1  0.64986200  0.00046700  0.75174700  1
  Li  Li4  1  0.51159500  0.67060700  0.08445400  1
  Li  Li5  1  0.49997200  0.31753800  0.41948600  1
  Li  Li6  1  0.50002800  0.68246200  0.58051400  1
  Li  Li7  1  0.48840500  0.32939300  0.91554600  1
  Li  Li8  1  0.35013800  0.99953300  0.24825300  1
  Li  Li9  1  0.85013800  0.00046700  0.25174700  1
  Li  Li10  1  0.98840500  0.67060700  0.58445400  1
  Li  Li11  1  0.00002800  0.31753800  0.91948600  1
  Si  Si12  1  0.75317000  0.35875700  0.59222700  1
  Si  Si13  1  0.74439800  0.68174100  0.23553900  1
  Si  Si14  1  0.75142200  0.96988000  0.92730000  1
  Si  Si15  1  0.25142200  0.03012000  0.57270000  1
  Si  Si16  1  0.24439800  0.31825900  0.26446100  1
  Si  Si17  1  0.25317000  0.64124300  0.90777300  1
  Si  Si18  1  0.74683000  0.35875700  0.09222700  1
  Si  Si19  1  0.75560200  0.68174100  0.73553900  1
  Si  Si20  1  0.74857800  0.96988000  0.42730000  1
  Si  Si21  1  0.24857800  0.03012000  0.07270000  1
  Si  Si22  1  0.25560200  0.31825900  0.76446100  1
  Si  Si23  1  0.24683000  0.64124300  0.40777300  1
  Bi  Bi24  1  0.25691600  0.38071500  0.59499900  1
  Bi  Bi25  1  0.24640500  0.69080900  0.21920000  1
  Bi  Bi26  1  0.25559000  0.92454300  0.93500300  1
  Bi  Bi27  1  0.75559000  0.07545700  0.56499700  1
  Bi  Bi28  1  0.74640500  0.30919100  0.28080000  1
  Bi  Bi29  1  0.75691600  0.61928500  0.90500100  1
  Bi  Bi30  1  0.24308400  0.38071500  0.09499900  1
  Bi  Bi31  1  0.25359500  0.69080900  0.71920000  1
  Bi  Bi32  1  0.24441000  0.92454300  0.43500300  1
  Bi  Bi33  1  0.74441000  0.07545700  0.06499700  1
  Bi  Bi34  1  0.75359500  0.30919100  0.78080000  1
  Bi  Bi35  1  0.74308400  0.61928500  0.40500100  1
  O  O36  1  0.43371100  0.54159600  0.40415500  1
  O  O37  1  0.05982900  0.54792600  0.40002400  1
  O  O38  1  0.22942600  0.85860500  0.06830400  1
  O  O39  1  0.55883800  0.69552600  0.18076700  1
  O  O40  1  0.75706800  0.34708400  0.50693800  1
  O  O41  1  0.93212700  0.70606200  0.17986400  1
  O  O42  1  0.25970600  0.19543800  0.72731700  1
  O  O43  1  0.72551400  0.04625800  0.83039500  1
  O  O44  1  0.56873900  0.85893100  0.97683600  1
  O  O45  1  0.43779800  0.14789100  0.53799500  1
  O  O46  1  0.74438300  0.50428500  0.32222900  1
  O  O47  1  0.75105400  0.16723800  0.65776600  1
  O  O48  1  0.24438300  0.49571500  0.17777100  1
  O  O49  1  0.25105400  0.83276200  0.84223400  1
  O  O50  1  0.93779800  0.85210900  0.96200500  1
  O  O51  1  0.06873900  0.14106900  0.52316400  1
  O  O52  1  0.22551400  0.95374200  0.66960500  1
  O  O53  1  0.43212700  0.29393800  0.32013600  1
  O  O54  1  0.75970600  0.80456200  0.77268300  1
  O  O55  1  0.25706800  0.65291600  0.99306200  1
  O  O56  1  0.05883800  0.30447400  0.31923300  1
  O  O57  1  0.72942600  0.14139500  0.43169600  1
  O  O58  1  0.55982900  0.45207400  0.09997600  1
  O  O59  1  0.93371100  0.45840400  0.09584500  1
  O  O60  1  0.06628900  0.54159600  0.90415500  1
  O  O61  1  0.44017100  0.54792600  0.90002400  1
  O  O62  1  0.27057400  0.85860500  0.56830400  1
  O  O63  1  0.94116200  0.69552600  0.68076700  1
  O  O64  1  0.74293200  0.34708400  0.00693800  1
  O  O65  1  0.24029400  0.19543800  0.22731700  1
  O  O66  1  0.56787300  0.70606200  0.67986400  1
  O  O67  1  0.77448600  0.04625800  0.33039500  1
  O  O68  1  0.93126100  0.85893100  0.47683600  1
  O  O69  1  0.06220200  0.14789100  0.03799500  1
  O  O70  1  0.74894600  0.16723800  0.15776600  1
  O  O71  1  0.75561700  0.50428500  0.82222900  1
  O  O72  1  0.24894600  0.83276200  0.34223400  1
  O  O73  1  0.25561700  0.49571500  0.67777100  1
  O  O74  1  0.56220200  0.85210900  0.46200500  1
  O  O75  1  0.43126100  0.14106900  0.02316400  1
  O  O76  1  0.27448600  0.95374200  0.16960500  1
  O  O77  1  0.74029400  0.80456200  0.27268300  1
  O  O78  1  0.06787300  0.29393800  0.82013600  1
  O  O79  1  0.24293200  0.65291600  0.49306200  1
  O  O80  1  0.44116200  0.30447400  0.81923300  1
  O  O81  1  0.77057400  0.14139500  0.93169600  1
  O  O82  1  0.94017100  0.45207400  0.59997600  1
  O  O83  1  0.56628900  0.45840400  0.59584500  1
