# generated using pymatgen
data_Li3V3P8O29
_symmetry_space_group_name_H-M   'P 1'
_cell_length_a   9.74132200
_cell_length_b   9.76620191
_cell_length_c   14.13952164
_cell_angle_alpha   90.33137636
_cell_angle_beta   89.97293959
_cell_angle_gamma   119.79736302
_symmetry_Int_Tables_number   1
_chemical_formula_structural   Li3V3P8O29
_chemical_formula_sum   'Li6 V6 P16 O58'
_cell_volume   1167.30189604
_cell_formula_units_Z   2
loop_
 _symmetry_equiv_pos_site_id
 _symmetry_equiv_pos_as_xyz
  1  'x, y, z'
loop_
 _atom_site_type_symbol
 _atom_site_label
 _atom_site_symmetry_multiplicity
 _atom_site_fract_x
 _atom_site_fract_y
 _atom_site_fract_z
 _atom_site_occupancy
  Li  Li0  1  0.65986600  0.32238400  0.61084500  1
  Li  Li1  1  0.91496300  0.68274600  0.44202500  1
  Li  Li2  1  0.23438300  0.32706300  0.05618900  1
  Li  Li3  1  0.67399300  0.90693200  0.05541400  1
  Li  Li4  1  0.01683400  0.96853400  0.99164200  1
  Li  Li5  1  0.01079700  0.05065300  0.51370400  1
  V  V6  1  0.00015800  0.43119200  0.75243100  1
  V  V7  1  0.00543400  0.56541200  0.24372000  1
  V  V8  1  0.43655600  0.43464500  0.25596800  1
  V  V9  1  0.56740500  0.56954700  0.75068700  1
  V  V10  1  0.42859700  0.99738200  0.75095900  1
  V  V11  1  0.56122600  0.00221200  0.25515200  1
  P  P12  1  0.30594600  0.08452600  0.15739200  1
  P  P13  1  0.30821400  0.21950500  0.65783800  1
  P  P14  1  0.78096500  0.08820100  0.65779200  1
  P  P15  1  0.66578400  0.33308800  0.86901200  1
  P  P16  1  0.67228600  0.33904200  0.37058600  1
  P  P17  1  0.91367500  0.22040600  0.15941200  1
  P  P18  1  0.08264600  0.30946400  0.34453900  1
  P  P19  1  0.77277700  0.68902500  0.15833700  1
  P  P20  1  0.22737300  0.31071200  0.84218200  1
  P  P21  1  0.90854100  0.68318500  0.65602100  1
  P  P22  1  0.08119000  0.77694300  0.83949500  1
  P  P23  1  0.33133600  0.66539700  0.63063100  1
  P  P24  1  0.33926200  0.66551000  0.13094000  1
  P  P25  1  0.21940300  0.91545600  0.34303400  1
  P  P26  1  0.69144000  0.77735300  0.34259800  1
  P  P27  1  0.69046000  0.91728400  0.84176100  1
  O  O28  1  0.21119700  0.99324900  0.43036100  1
  O  O29  1  0.34689100  0.08181600  0.66537200  1
  O  O30  1  0.21705300  0.23132800  0.93340900  1
  O  O31  1  0.34582000  0.26025300  0.16609600  1
  O  O32  1  0.46305000  0.08004600  0.17432700  1
  O  O33  1  0.52247100  0.18402600  0.82115100  1
  O  O34  1  0.62577700  0.09599600  0.66615200  1
  O  O35  1  0.77007600  0.98451300  0.93373600  1
  O  O36  1  0.73974100  0.08357600  0.16147900  1
  O  O37  1  0.52216700  0.33664900  0.32580600  1
  O  O38  1  0.47112600  0.37357000  0.66688400  1
  O  O39  1  0.66783900  0.18831200  0.32522200  1
  O  O40  1  0.66445800  0.33318400  0.97321600  1
  O  O41  1  0.66782600  0.33831400  0.47583600  1
  O  O42  1  0.81526100  0.33645300  0.82336200  1
  O  O43  1  0.61469000  0.53363000  0.17309000  1
  O  O44  1  0.66048600  0.47658300  0.82163500  1
  O  O45  1  0.91812600  0.26428200  0.66725600  1
  O  O46  1  0.99162400  0.19894500  0.25436000  1
  O  O47  1  0.01150000  0.22323500  0.43211400  1
  O  O48  1  0.00556000  0.21807600  0.07625300  1
  O  O49  1  0.91435300  0.38078700  0.17267100  1
  O  O50  1  0.81908000  0.48842700  0.33151800  1
  O  O51  1  0.08761700  0.34488500  0.83149800  1
  O  O52  1  0.89544400  0.51945200  0.67006600  1
  O  O53  1  0.73588700  0.65328800  0.66684900  1
  O  O54  1  0.20975300  0.19903900  0.75484500  1
  O  O55  1  0.20750200  0.20175900  0.57610600  1
  O  O56  1  0.78272300  0.78108900  0.42711100  1
  O  O57  1  0.25851600  0.34956000  0.33003000  1
  O  O58  1  0.08050900  0.46582900  0.32645200  1
  O  O59  1  0.90911800  0.64971900  0.16741300  1
  O  O60  1  0.18009000  0.52796400  0.67883300  1
  O  O61  1  0.07563300  0.61681000  0.82910900  1
  O  O62  1  0.00245400  0.79756600  0.92264900  1
  O  O63  1  0.98163000  0.76335000  0.56609100  1
  O  O64  1  0.00254800  0.79632500  0.74333600  1
  O  O65  1  0.08377700  0.74019700  0.33404800  1
  O  O66  1  0.33154700  0.51358200  0.17301100  1
  O  O67  1  0.38325900  0.46696500  0.82618000  1
  O  O68  1  0.18892800  0.66611800  0.17698500  1
  O  O69  1  0.33575500  0.66120700  0.02607400  1
  O  O70  1  0.32941600  0.66357400  0.52658700  1
  O  O71  1  0.34389000  0.81836200  0.67694000  1
  O  O72  1  0.53238100  0.61853800  0.32820200  1
  O  O73  1  0.47278900  0.65424600  0.67662800  1
  O  O74  1  0.25762700  0.91302300  0.83143800  1
  O  O75  1  0.20134400  0.99950700  0.24996200  1
  O  O76  1  0.21510100  0.00864000  0.07068900  1
  O  O77  1  0.38095300  0.91590900  0.32661000  1
  O  O78  1  0.48784500  0.81528100  0.17260400  1
  O  O79  1  0.53398300  0.91786900  0.82610500  1
  O  O80  1  0.65578500  0.74339700  0.82999900  1
  O  O81  1  0.78369500  0.78373000  0.07386300  1
  O  O82  1  0.79617200  0.79724800  0.25027900  1
  O  O83  1  0.65222500  0.91279600  0.33363200  1
  O  O84  1  0.80362600  0.00833200  0.57547000  1
  O  O85  1  0.80141200  0.01026200  0.75474800  1
