# generated using pymatgen
data_Li2FeSi3O8
_symmetry_space_group_name_H-M   'P 1'
_cell_length_a   6.72453325
_cell_length_b   10.07085013
_cell_length_c   12.33705377
_cell_angle_alpha   71.99808460
_cell_angle_beta   82.23651537
_cell_angle_gamma   103.08898832
_symmetry_Int_Tables_number   1
_chemical_formula_structural   Li2FeSi3O8
_chemical_formula_sum   'Li8 Fe4 Si12 O32'
_cell_volume   754.73967618
_cell_formula_units_Z   4
loop_
 _symmetry_equiv_pos_site_id
 _symmetry_equiv_pos_as_xyz
  1  'x, y, z'
loop_
 _atom_site_type_symbol
 _atom_site_label
 _atom_site_symmetry_multiplicity
 _atom_site_fract_x
 _atom_site_fract_y
 _atom_site_fract_z
 _atom_site_occupancy
  Li  Li0  1  0.10576568  0.24833682  0.05986838  1
  Li  Li1  1  0.60561225  0.74834616  0.55994587  1
  Li  Li2  1  0.88658759  0.75975128  0.00736073  1
  Li  Li3  1  0.38663874  0.25983164  0.50737302  1
  Li  Li4  1  0.17251819  0.60590557  0.25264621  1
  Li  Li5  1  0.67248455  0.10594735  0.75265291  1
  Li  Li6  1  0.77713029  0.33595870  0.29005767  1
  Li  Li7  1  0.27748422  0.83599941  0.78996085  1
  Fe  Fe8  1  0.72341529  0.07826930  0.50823751  1
  Fe  Fe9  1  0.62062484  0.60351788  0.30003835  1
  Fe  Fe10  1  0.22367164  0.57840577  0.00811120  1
  Fe  Fe11  1  0.12038972  0.10333353  0.80004080  1
  Si  Si12  1  0.21527485  0.61233987  0.48870851  1
  Si  Si13  1  0.71542873  0.11265950  0.98855854  1
  Si  Si14  1  0.75208885  0.40075375  0.00935399  1
  Si  Si15  1  0.25150611  0.90030808  0.50962703  1
  Si  Si16  1  0.93561687  0.94368569  0.14819858  1
  Si  Si17  1  0.43580832  0.44358230  0.64827540  1
  Si  Si18  1  0.40806209  0.37966706  0.21384812  1
  Si  Si19  1  0.90797046  0.87971568  0.71390772  1
  Si  Si20  1  0.08198841  0.09693791  0.31195013  1
  Si  Si21  1  0.58230075  0.59707977  0.81182943  1
  Si  Si22  1  0.80779681  0.43077823  0.48141043  1
  Si  Si23  1  0.30770182  0.93085425  0.98138844  1
  O  O24  1  0.83673651  0.08309213  0.09915137  1
  O  O25  1  0.33689465  0.58294607  0.59916929  1
  O  O26  1  0.12706876  0.75190861  0.49053217  1
  O  O27  1  0.62781326  0.25255010  0.99003559  1
  O  O28  1  0.35856895  0.64382098  0.36263460  1
  O  O29  1  0.85861612  0.14382787  0.86257607  1
  O  O30  1  0.14768187  0.00700939  0.04020501  1
  O  O31  1  0.64802404  0.50697642  0.54034443  1
  O  O32  1  0.64855213  0.39915454  0.13991906  1
  O  O33  1  0.14856690  0.89907165  0.64016434  1
  O  O34  1  0.52215135  0.96332405  0.02926758  1
  O  O35  1  0.02228956  0.46285819  0.52937267  1
  O  O36  1  0.99647007  0.41162648  0.00462360  1
  O  O37  1  0.49604532  0.91141476  0.50475238  1
  O  O38  1  0.25937939  0.22846639  0.20095282  1
  O  O39  1  0.75943252  0.72862209  0.70080694  1
  O  O40  1  0.79684658  0.78436624  0.16346087  1
  O  O41  1  0.29683619  0.28424847  0.66353743  1
  O  O42  1  0.30809724  0.51016910  0.15960327  1
  O  O43  1  0.80814121  0.01023970  0.65960753  1
  O  O44  1  0.20059053  0.04059371  0.41857713  1
  O  O45  1  0.70213938  0.54123465  0.91794317  1
  O  O46  1  0.18026354  0.76040860  0.02598346  1
  O  O47  1  0.68019113  0.26038102  0.52598005  1
  O  O48  1  0.00341283  0.95930810  0.26760150  1
  O  O49  1  0.50355950  0.45932584  0.76762696  1
  O  O50  1  0.44990505  0.36960616  0.34148446  1
  O  O51  1  0.94943613  0.86952084  0.84163943  1
  O  O52  1  0.89853912  0.16526501  0.34591256  1
  O  O53  1  0.39882187  0.66527642  0.84587353  1
  O  O54  1  0.86552574  0.51367934  0.33867224  1
  O  O55  1  0.36547550  0.01367560  0.83863467  1
