# generated using pymatgen
data_KNa2LiZr2(Si2O5)6
_symmetry_space_group_name_H-M   'P 1'
_cell_length_a   10.38740478
_cell_length_b   10.38740478
_cell_length_c   14.66236300
_cell_angle_alpha   90.00000000
_cell_angle_beta   90.00000000
_cell_angle_gamma   120.66018659
_symmetry_Int_Tables_number   1
_chemical_formula_structural   KNa2LiZr2(Si2O5)6
_chemical_formula_sum   'K2 Na4 Li2 Zr4 Si24 O60'
_cell_volume   1360.88354913
_cell_formula_units_Z   2
loop_
 _symmetry_equiv_pos_site_id
 _symmetry_equiv_pos_as_xyz
  1  'x, y, z'
loop_
 _atom_site_type_symbol
 _atom_site_label
 _atom_site_symmetry_multiplicity
 _atom_site_fract_x
 _atom_site_fract_y
 _atom_site_fract_z
 _atom_site_occupancy
  K  K0  1  0.50000000  0.50000000  0.25000000  1
  K  K1  1  0.50000000  0.50000000  0.75000000  1
  Na  Na2  1  0.18751600  0.84029700  0.00000000  1
  Na  Na3  1  0.15970300  0.81248400  0.50000000  1
  Na  Na4  1  0.81248400  0.15970300  0.00000000  1
  Na  Na5  1  0.84029700  0.18751600  0.50000000  1
  Li  Li6  1  0.00000000  0.00000000  0.25000000  1
  Li  Li7  1  0.00000000  0.00000000  0.75000000  1
  Zr  Zr8  1  0.16890000  0.83110000  0.25000000  1
  Zr  Zr9  1  0.16890000  0.83110000  0.75000000  1
  Zr  Zr10  1  0.83110000  0.16890000  0.25000000  1
  Zr  Zr11  1  0.83110000  0.16890000  0.75000000  1
  Si  Si12  1  0.84401300  0.61964400  0.39139300  1
  Si  Si13  1  0.84401300  0.61964400  0.60860700  1
  Si  Si14  1  0.85458700  0.73032900  0.10768100  1
  Si  Si15  1  0.85458700  0.73032900  0.89231900  1
  Si  Si16  1  0.27162400  0.62220900  0.10937100  1
  Si  Si17  1  0.27162400  0.62220900  0.89062900  1
  Si  Si18  1  0.37779100  0.72837600  0.39062900  1
  Si  Si19  1  0.37779100  0.72837600  0.60937100  1
  Si  Si20  1  0.26967100  0.14541300  0.39231900  1
  Si  Si21  1  0.26967100  0.14541300  0.60768100  1
  Si  Si22  1  0.61964400  0.84401300  0.10860700  1
  Si  Si23  1  0.61964400  0.84401300  0.89139300  1
  Si  Si24  1  0.38035600  0.15598700  0.10860700  1
  Si  Si25  1  0.38035600  0.15598700  0.89139300  1
  Si  Si26  1  0.73032900  0.85458700  0.60768100  1
  Si  Si27  1  0.73032900  0.85458700  0.39231900  1
  Si  Si28  1  0.62220900  0.27162400  0.39062900  1
  Si  Si29  1  0.62220900  0.27162400  0.60937100  1
  Si  Si30  1  0.72837600  0.37779100  0.89062900  1
  Si  Si31  1  0.72837600  0.37779100  0.10937100  1
  Si  Si32  1  0.14541300  0.26967100  0.10768100  1
  Si  Si33  1  0.14541300  0.26967100  0.89231900  1
  Si  Si34  1  0.15598700  0.38035600  0.39139300  1
  Si  Si35  1  0.15598700  0.38035600  0.60860700  1
  O  O36  1  0.78257200  0.55234300  0.13022300  1
  O  O37  1  0.78257200  0.55234300  0.86977700  1
  O  O38  1  0.75964600  0.71554000  0.37701500  1
  O  O39  1  0.75964600  0.71554000  0.62298500  1
  O  O40  1  0.88767500  0.62658700  0.50000000  1
  O  O41  1  0.91234400  0.76087100  0.00000000  1
  O  O42  1  0.99730700  0.68377000  0.33675200  1
  O  O43  1  0.99730700  0.68377000  0.66324800  1
  O  O44  1  0.17572500  0.68149400  0.16055700  1
  O  O45  1  0.17572500  0.68149400  0.83944300  1
  O  O46  1  0.28520100  0.55071000  0.36208300  1
  O  O47  1  0.28520100  0.55071000  0.63791700  1
  O  O48  1  0.99322800  0.83609400  0.17245900  1
  O  O49  1  0.99322800  0.83609400  0.82754100  1
  O  O50  1  0.25776400  0.64807500  0.00000000  1
  O  O51  1  0.35192500  0.74223600  0.50000000  1
  O  O52  1  0.16390600  0.00677200  0.32754100  1
  O  O53  1  0.16390600  0.00677200  0.67245900  1
  O  O54  1  0.44929000  0.71479900  0.13791700  1
  O  O55  1  0.44929000  0.71479900  0.86208300  1
  O  O56  1  0.31850600  0.82427500  0.66055700  1
  O  O57  1  0.31850600  0.82427500  0.33944300  1
  O  O58  1  0.31623000  0.00269300  0.16324800  1
  O  O59  1  0.31623000  0.00269300  0.83675200  1
  O  O60  1  0.23912900  0.08765600  0.50000000  1
  O  O61  1  0.55234300  0.78257200  0.36977700  1
  O  O62  1  0.55234300  0.78257200  0.63022300  1
  O  O63  1  0.37341300  0.11232500  0.00000000  1
  O  O64  1  0.28446000  0.24035400  0.12298500  1
  O  O65  1  0.28446000  0.24035400  0.87701500  1
  O  O66  1  0.71554000  0.75964600  0.12298500  1
  O  O67  1  0.71554000  0.75964600  0.87701500  1
  O  O68  1  0.62658700  0.88767500  0.00000000  1
  O  O69  1  0.44765700  0.21742800  0.36977700  1
  O  O70  1  0.44765700  0.21742800  0.63022300  1
  O  O71  1  0.76087100  0.91234400  0.50000000  1
  O  O72  1  0.68377000  0.99730700  0.16324800  1
  O  O73  1  0.68377000  0.99730700  0.83675200  1
  O  O74  1  0.68149400  0.17572500  0.33944300  1
  O  O75  1  0.68149400  0.17572500  0.66055700  1
  O  O76  1  0.55071000  0.28520100  0.13791700  1
  O  O77  1  0.55071000  0.28520100  0.86208300  1
  O  O78  1  0.83609400  0.99322800  0.32754100  1
  O  O79  1  0.83609400  0.99322800  0.67245900  1
  O  O80  1  0.64807500  0.25776400  0.50000000  1
  O  O81  1  0.74223600  0.35192500  0.00000000  1
  O  O82  1  0.00677200  0.16390600  0.17245900  1
  O  O83  1  0.00677200  0.16390600  0.82754100  1
  O  O84  1  0.71479900  0.44929000  0.36208300  1
  O  O85  1  0.71479900  0.44929000  0.63791700  1
  O  O86  1  0.82427500  0.31850600  0.16055700  1
  O  O87  1  0.82427500  0.31850600  0.83944300  1
  O  O88  1  0.00269300  0.31623000  0.33675200  1
  O  O89  1  0.00269300  0.31623000  0.66324800  1
  O  O90  1  0.08765600  0.23912900  0.00000000  1
  O  O91  1  0.11232500  0.37341300  0.50000000  1
  O  O92  1  0.24035400  0.28446000  0.37701500  1
  O  O93  1  0.24035400  0.28446000  0.62298500  1
  O  O94  1  0.21742800  0.44765700  0.13022300  1
  O  O95  1  0.21742800  0.44765700  0.86977700  1
