# generated using pymatgen
data_K4Li3Nb18P12(WO42)2
_symmetry_space_group_name_H-M   'P 1'
_cell_length_a   10.64673100
_cell_length_b   10.57971400
_cell_length_c   15.85213857
_cell_angle_alpha   89.88384795
_cell_angle_beta   90.00000000
_cell_angle_gamma   90.00000000
_symmetry_Int_Tables_number   1
_chemical_formula_structural   K4Li3Nb18P12(WO42)2
_chemical_formula_sum   'K4 Li3 Nb18 P12 W2 O84'
_cell_volume   1785.57121740
_cell_formula_units_Z   1
loop_
 _symmetry_equiv_pos_site_id
 _symmetry_equiv_pos_as_xyz
  1  'x, y, z'
loop_
 _atom_site_type_symbol
 _atom_site_label
 _atom_site_symmetry_multiplicity
 _atom_site_fract_x
 _atom_site_fract_y
 _atom_site_fract_z
 _atom_site_occupancy
  K  K0  1  0.00000000  0.49789200  0.00011600  1
  K  K1  1  0.50000000  0.60887000  0.00806100  1
  K  K2  1  0.00000000  0.99923600  0.50008200  1
  K  K3  1  0.50000000  0.99637700  0.59441300  1
  Li  Li4  1  0.50000000  0.19192900  0.03390800  1
  Li  Li5  1  0.50000000  0.68981800  0.46489200  1
  Li  Li6  1  0.50000000  0.31255200  0.53387400  1
  Nb  Nb7  1  0.50000000  0.17207100  0.21669900  1
  Nb  Nb8  1  0.82307800  0.56962300  0.22289300  1
  Nb  Nb9  1  0.17692200  0.56962300  0.22289300  1
  Nb  Nb10  1  0.82495900  0.07258600  0.27943200  1
  Nb  Nb11  1  0.17504100  0.07258600  0.27943200  1
  Nb  Nb12  1  0.50000000  0.67424400  0.28246700  1
  Nb  Nb13  1  0.81907000  0.36419000  0.42349700  1
  Nb  Nb14  1  0.18093000  0.36419000  0.42349700  1
  Nb  Nb15  1  0.81962700  0.64035400  0.57841400  1
  Nb  Nb16  1  0.18037300  0.64035400  0.57841400  1
  Nb  Nb17  1  0.50000000  0.33153700  0.71732500  1
  Nb  Nb18  1  0.82391400  0.93014900  0.72341900  1
  Nb  Nb19  1  0.17608600  0.93014900  0.72341900  1
  Nb  Nb20  1  0.82459800  0.43012600  0.77814700  1
  Nb  Nb21  1  0.17540200  0.43012600  0.77814700  1
  Nb  Nb22  1  0.50000000  0.82816700  0.79115500  1
  Nb  Nb23  1  0.81942200  0.13822000  0.92292600  1
  Nb  Nb24  1  0.18057800  0.13822000  0.92292600  1
  P  P25  1  0.76774800  0.28529200  0.11957400  1
  P  P26  1  0.23225200  0.28529200  0.11957400  1
  P  P27  1  0.50000000  0.88152300  0.11968900  1
  P  P28  1  0.50000000  0.38097200  0.37824900  1
  P  P29  1  0.76790400  0.78533100  0.38035100  1
  P  P30  1  0.23209600  0.78533100  0.38035100  1
  P  P31  1  0.76836900  0.21483400  0.61936400  1
  P  P32  1  0.23163100  0.21483400  0.61936400  1
  P  P33  1  0.50000000  0.62093300  0.62300400  1
  P  P34  1  0.50000000  0.12078200  0.87771500  1
  P  P35  1  0.77003200  0.71429500  0.88022400  1
  P  P36  1  0.22996800  0.71429500  0.88022400  1
  W  W37  1  0.81882600  0.85750900  0.07712500  1
  W  W38  1  0.18117400  0.85750900  0.07712500  1
  O  O39  1  0.79557500  0.99629200  0.00087800  1
  O  O40  1  0.20442500  0.99629200  0.00087800  1
  O  O41  1  0.18150200  0.26191100  0.03084500  1
  O  O42  1  0.81849800  0.26191100  0.03084500  1
  O  O43  1  0.00000000  0.87155000  0.07197900  1
  O  O44  1  0.61804800  0.82720600  0.07435300  1
  O  O45  1  0.38195200  0.82720600  0.07435300  1
  O  O46  1  0.50000000  0.02784000  0.12052300  1
  O  O47  1  0.62416800  0.25953100  0.12397400  1
  O  O48  1  0.37583200  0.25953100  0.12397400  1
  O  O49  1  0.83652300  0.69111800  0.13426300  1
  O  O50  1  0.16347700  0.69111800  0.13426300  1
  O  O51  1  0.79300900  0.42768100  0.13884600  1
  O  O52  1  0.20699100  0.42768100  0.13884600  1
  O  O53  1  0.79669500  0.94181500  0.17478000  1
  O  O54  1  0.20330500  0.94181500  0.17478000  1
  O  O55  1  0.83743600  0.20383500  0.18591300  1
  O  O56  1  0.16256400  0.20383500  0.18591300  1
  O  O57  1  0.50000000  0.83314500  0.21305800  1
  O  O58  1  0.63243400  0.60039900  0.22624100  1
  O  O59  1  0.36756600  0.60039900  0.22624100  1
  O  O60  1  0.00000000  0.53332700  0.22705400  1
  O  O61  1  0.00000000  0.02845400  0.26828500  1
  O  O62  1  0.63414900  0.09760500  0.27052900  1
  O  O63  1  0.36585100  0.09760500  0.27052900  1
  O  O64  1  0.50000000  0.33166700  0.28567200  1
  O  O65  1  0.83748200  0.70421600  0.31345400  1
  O  O66  1  0.16251800  0.70421600  0.31345400  1
  O  O67  1  0.79257500  0.44471200  0.32070500  1
  O  O68  1  0.20742500  0.44471200  0.32070500  1
  O  O69  1  0.79324700  0.92710800  0.35958400  1
  O  O70  1  0.20675300  0.92710800  0.35958400  1
  O  O71  1  0.83957400  0.18810800  0.36535900  1
  O  O72  1  0.16042600  0.18810800  0.36535900  1
  O  O73  1  0.62451200  0.75883100  0.37606900  1
  O  O74  1  0.37548800  0.75883100  0.37606900  1
  O  O75  1  0.50000000  0.52777500  0.37686600  1
  O  O76  1  0.61444200  0.32917300  0.42832300  1
  O  O77  1  0.38555800  0.32917300  0.42832300  1
  O  O78  1  0.00000000  0.37724500  0.42735300  1
  O  O79  1  0.81895100  0.76342800  0.46892500  1
  O  O80  1  0.18104900  0.76342800  0.46892500  1
  O  O81  1  0.78948200  0.50092300  0.49981900  1
  O  O82  1  0.21051800  0.50092300  0.49981900  1
  O  O83  1  0.81919400  0.23710600  0.53065100  1
  O  O84  1  0.18080600  0.23710600  0.53065100  1
  O  O85  1  0.00000000  0.62274200  0.57257600  1
  O  O86  1  0.38601400  0.67257400  0.57184700  1
  O  O87  1  0.61398600  0.67257400  0.57184700  1
  O  O88  1  0.50000000  0.47318400  0.62252000  1
  O  O89  1  0.62358700  0.23848900  0.62330600  1
  O  O90  1  0.37641300  0.23848900  0.62330600  1
  O  O91  1  0.83727800  0.81227600  0.63572300  1
  O  O92  1  0.16272200  0.81227600  0.63572300  1
  O  O93  1  0.79061000  0.07172800  0.63871300  1
  O  O94  1  0.20939000  0.07172800  0.63871300  1
  O  O95  1  0.79113100  0.55616600  0.67867300  1
  O  O96  1  0.20886900  0.55616600  0.67867300  1
  O  O97  1  0.83714400  0.29556400  0.68601000  1
  O  O98  1  0.16285600  0.29556400  0.68601000  1
  O  O99  1  0.50000000  0.66850300  0.71525300  1
  O  O100  1  0.63173600  0.89884500  0.72882200  1
  O  O101  1  0.36826400  0.89884500  0.72882200  1
  O  O102  1  0.00000000  0.97128300  0.72960800  1
  O  O103  1  0.00000000  0.47118200  0.76982700  1
  O  O104  1  0.63318500  0.40211900  0.77315200  1
  O  O105  1  0.36681500  0.40211900  0.77315200  1
  O  O106  1  0.50000000  0.16899100  0.78478700  1
  O  O107  1  0.84054100  0.79597200  0.81519800  1
  O  O108  1  0.15945900  0.79597200  0.81519800  1
  O  O109  1  0.79121800  0.05532300  0.82205700  1
  O  O110  1  0.20878200  0.05532300  0.82205700  1
  O  O111  1  0.79715300  0.57221300  0.86351900  1
  O  O112  1  0.20284700  0.57221300  0.86351900  1
  O  O113  1  0.83877700  0.31096600  0.86426200  1
  O  O114  1  0.16122300  0.31096600  0.86426200  1
  O  O115  1  0.37306400  0.73628400  0.87489500  1
  O  O116  1  0.62693600  0.73628400  0.87489500  1
  O  O117  1  0.50000000  0.97457100  0.87463600  1
  O  O118  1  0.61442400  0.17060700  0.92836300  1
  O  O119  1  0.38557600  0.17060700  0.92836300  1
  O  O120  1  0.00000000  0.12239600  0.92785900  1
  O  O121  1  0.81786800  0.73928500  0.97062600  1
  O  O122  1  0.18213200  0.73928500  0.97062600  1
