# generated using pymatgen
data_Li2Mn3(BO3)3
_symmetry_space_group_name_H-M   'P 1'
_cell_length_a   5.22572000
_cell_length_b   5.86676926
_cell_length_c   13.43652189
_cell_angle_alpha   96.58102948
_cell_angle_beta   91.28985781
_cell_angle_gamma   112.38580411
_symmetry_Int_Tables_number   1
_chemical_formula_structural   Li2Mn3(BO3)3
_chemical_formula_sum   'Li4 Mn6 B6 O18'
_cell_volume   377.40213876
_cell_formula_units_Z   2
loop_
 _symmetry_equiv_pos_site_id
 _symmetry_equiv_pos_as_xyz
  1  'x, y, z'
loop_
 _atom_site_type_symbol
 _atom_site_label
 _atom_site_symmetry_multiplicity
 _atom_site_fract_x
 _atom_site_fract_y
 _atom_site_fract_z
 _atom_site_occupancy
  Li  Li0  1  0.81481600  0.46924300  0.12780300  1
  Li  Li1  1  0.47502000  0.77661700  0.46094300  1
  Li  Li2  1  0.52498000  0.22338300  0.53905700  1
  Li  Li3  1  0.18518400  0.53075700  0.87219700  1
  Mn  Mn4  1  0.36410900  0.51027700  0.25608400  1
  Mn  Mn5  1  0.01274800  0.83720800  0.59118100  1
  Mn  Mn6  1  0.67663800  0.15534600  0.91703700  1
  Mn  Mn7  1  0.32336200  0.84465400  0.08296300  1
  Mn  Mn8  1  0.98725200  0.16279200  0.40881900  1
  Mn  Mn9  1  0.63589100  0.48972300  0.74391600  1
  B  B10  1  0.24371600  0.29130100  0.03418500  1
  B  B11  1  0.90787800  0.61741300  0.36147000  1
  B  B12  1  0.57428300  0.95214800  0.69048500  1
  B  B13  1  0.42571700  0.04785200  0.30951500  1
  B  B14  1  0.09212200  0.38258700  0.63853000  1
  B  B15  1  0.75628400  0.70869900  0.96581500  1
  O  O16  1  0.46948900  0.22012800  0.04885300  1
  O  O17  1  0.13654800  0.55194200  0.37908100  1
  O  O18  1  0.75849000  0.53921300  0.27064400  1
  O  O19  1  0.43678800  0.89928800  0.59714800  1
  O  O20  1  0.18724800  0.43823700  0.11457500  1
  O  O21  1  0.84491300  0.76484600  0.43821500  1
  O  O22  1  0.56003800  0.13642300  0.76294400  1
  O  O23  1  0.75509100  0.83563300  0.71265400  1
  O  O24  1  0.90313500  0.76145800  0.05566900  1
  O  O25  1  0.09686500  0.23854200  0.94433100  1
  O  O26  1  0.24490900  0.16436700  0.28734600  1
  O  O27  1  0.43996200  0.86357700  0.23705600  1
  O  O28  1  0.15508700  0.23515400  0.56178500  1
  O  O29  1  0.81275200  0.56176300  0.88542500  1
  O  O30  1  0.56321200  0.10071200  0.40285200  1
  O  O31  1  0.24151000  0.46078700  0.72935600  1
  O  O32  1  0.86345200  0.44805800  0.62091900  1
  O  O33  1  0.53051100  0.77987200  0.95114700  1
