# generated using pymatgen
data_Li6Mn3Cr2Fe3O16
_symmetry_space_group_name_H-M   'P 1'
_cell_length_a   5.86448800
_cell_length_b   5.87123287
_cell_length_c   9.56081743
_cell_angle_alpha   89.41621255
_cell_angle_beta   89.19893832
_cell_angle_gamma   60.51278564
_symmetry_Int_Tables_number   1
_chemical_formula_structural   Li6Mn3Cr2Fe3O16
_chemical_formula_sum   'Li6 Mn3 Cr2 Fe3 O16'
_cell_volume   286.52362879
_cell_formula_units_Z   1
loop_
 _symmetry_equiv_pos_site_id
 _symmetry_equiv_pos_as_xyz
  1  'x, y, z'
loop_
 _atom_site_type_symbol
 _atom_site_label
 _atom_site_symmetry_multiplicity
 _atom_site_fract_x
 _atom_site_fract_y
 _atom_site_fract_z
 _atom_site_occupancy
  Li  Li0  1  0.34515000  0.83131400  0.94321800  1
  Li  Li1  1  0.83454700  0.34341800  0.94254000  1
  Li  Li2  1  0.82851100  0.82788600  0.94477300  1
  Li  Li3  1  0.17481100  0.17363600  0.44115000  1
  Li  Li4  1  0.17551800  0.65534700  0.44432400  1
  Li  Li5  1  0.65435300  0.17389300  0.44547800  1
  Mn  Mn6  1  0.83091900  0.83092000  0.21482200  1
  Mn  Mn7  1  0.17122900  0.66282700  0.71458600  1
  Mn  Mn8  1  0.66325100  0.16709200  0.71420600  1
  Cr  Cr9  1  0.66019200  0.66924300  0.48824100  1
  Cr  Cr10  1  0.33443300  0.33071200  0.98746100  1
  Fe  Fe11  1  0.33361700  0.83096100  0.21246700  1
  Fe  Fe12  1  0.83087400  0.33357500  0.21268300  1
  Fe  Fe13  1  0.16498000  0.16845100  0.71131900  1
  O  O14  1  0.31619200  0.83502800  0.59539500  1
  O  O15  1  0.51747300  0.51724600  0.34603400  1
  O  O16  1  0.67402200  0.67319600  0.09878300  1
  O  O17  1  0.83376500  0.32169200  0.59529600  1
  O  O18  1  0.52441100  0.96506100  0.34151400  1
  O  O19  1  0.96474900  0.52637300  0.34332300  1
  O  O20  1  0.15986400  0.15950800  0.09216100  1
  O  O21  1  0.82315000  0.85135700  0.59885000  1
  O  O22  1  0.04177000  0.48896300  0.84233600  1
  O  O23  1  0.15349900  0.67768300  0.09722000  1
  O  O24  1  0.99304300  0.99268100  0.32395500  1
  O  O25  1  0.48817900  0.03643800  0.84249800  1
  O  O26  1  0.98073900  0.01618200  0.82460300  1
  O  O27  1  0.35207600  0.31737900  0.59714300  1
  O  O28  1  0.49947000  0.47345900  0.84479500  1
  O  O29  1  0.67734700  0.15108500  0.09954700  1
