# generated using pymatgen
data_LiFeSiO4
_symmetry_space_group_name_H-M   'P 1'
_cell_length_a   4.80452500
_cell_length_b   5.87748700
_cell_length_c   10.20029100
_cell_angle_alpha   90.00000000
_cell_angle_beta   90.00000000
_cell_angle_gamma   90.00000000
_symmetry_Int_Tables_number   1
_chemical_formula_structural   LiFeSiO4
_chemical_formula_sum   'Li4 Fe4 Si4 O16'
_cell_volume   288.04125635
_cell_formula_units_Z   4
loop_
 _symmetry_equiv_pos_site_id
 _symmetry_equiv_pos_as_xyz
  1  'x, y, z'
loop_
 _atom_site_type_symbol
 _atom_site_label
 _atom_site_symmetry_multiplicity
 _atom_site_fract_x
 _atom_site_fract_y
 _atom_site_fract_z
 _atom_site_occupancy
  Li  Li0  1  0.00000000  0.00000000  0.50000000  1
  Li  Li1  1  0.00000000  0.50000000  0.50000000  1
  Li  Li2  1  0.50000000  0.50000000  0.00000000  1
  Li  Li3  1  0.50000000  0.00000000  0.00000000  1
  Fe  Fe4  1  0.99338200  0.25000000  0.22688900  1
  Fe  Fe5  1  0.50661800  0.25000000  0.72688900  1
  Fe  Fe6  1  0.49338200  0.75000000  0.27311100  1
  Fe  Fe7  1  0.00661800  0.75000000  0.77311100  1
  Si  Si8  1  0.94085700  0.75000000  0.09333400  1
  Si  Si9  1  0.55914300  0.75000000  0.59333400  1
  Si  Si10  1  0.44085700  0.25000000  0.40666600  1
  Si  Si11  1  0.05914300  0.25000000  0.90666600  1
  O  O12  1  0.31368700  0.25000000  0.55588700  1
  O  O13  1  0.77789600  0.25000000  0.39773000  1
  O  O14  1  0.71643700  0.96489500  0.67107900  1
  O  O15  1  0.71643700  0.53510500  0.67107900  1
  O  O16  1  0.78356300  0.96489500  0.17107900  1
  O  O17  1  0.78356300  0.53510500  0.17107900  1
  O  O18  1  0.72210400  0.25000000  0.89773000  1
  O  O19  1  0.18631300  0.25000000  0.05588700  1
  O  O20  1  0.81368700  0.75000000  0.94411300  1
  O  O21  1  0.27789600  0.75000000  0.10227000  1
  O  O22  1  0.28356300  0.46489500  0.32892100  1
  O  O23  1  0.28356300  0.03510500  0.32892100  1
  O  O24  1  0.21643700  0.46489500  0.82892100  1
  O  O25  1  0.21643700  0.03510500  0.82892100  1
  O  O26  1  0.22210400  0.75000000  0.60227000  1
  O  O27  1  0.68631300  0.75000000  0.44411300  1
