# generated using pymatgen
data_Li3MnF5
_symmetry_space_group_name_H-M   'P 1'
_cell_length_a   9.22704300
_cell_length_b   9.26984330
_cell_length_c   10.34103323
_cell_angle_alpha   72.93574547
_cell_angle_beta   72.76617572
_cell_angle_gamma   68.27798916
_symmetry_Int_Tables_number   1
_chemical_formula_structural   Li3MnF5
_chemical_formula_sum   'Li24 Mn8 F40'
_cell_volume   767.78139948
_cell_formula_units_Z   8
loop_
 _symmetry_equiv_pos_site_id
 _symmetry_equiv_pos_as_xyz
  1  'x, y, z'
loop_
 _atom_site_type_symbol
 _atom_site_label
 _atom_site_symmetry_multiplicity
 _atom_site_fract_x
 _atom_site_fract_y
 _atom_site_fract_z
 _atom_site_occupancy
  Li  Li0  1  0.39854500  0.90028600  0.28546600  1
  Li  Li1  1  0.05651600  0.56407500  0.09327300  1
  Li  Li2  1  0.18875500  0.72290800  0.85263700  1
  Li  Li3  1  0.31182800  0.79405500  0.11130100  1
  Li  Li4  1  0.43129400  0.92497700  0.88081000  1
  Li  Li5  1  0.14482200  0.64254200  0.28758600  1
  Li  Li6  1  0.39292800  0.40650800  0.79141300  1
  Li  Li7  1  0.20000900  0.20789700  0.36930400  1
  Li  Li8  1  0.71220600  0.71622000  0.35668700  1
  Li  Li9  1  0.02832100  0.04357400  0.63380600  1
  Li  Li10  1  0.55252700  0.56719100  0.59808100  1
  Li  Li11  1  0.97279800  0.95111700  0.36730200  1
  Li  Li12  1  0.46246700  0.45538600  0.36021800  1
  Li  Li13  1  0.31512900  0.30279000  0.59725900  1
  Li  Li14  1  0.82143300  0.80767700  0.61518700  1
  Li  Li15  1  0.14700600  0.15066700  0.78809500  1
  Li  Li16  1  0.64967700  0.64261800  0.78746900  1
  Li  Li17  1  0.90221800  0.40890900  0.27797100  1
  Li  Li18  1  0.55449700  0.06430700  0.09845900  1
  Li  Li19  1  0.72975000  0.22627500  0.86616200  1
  Li  Li20  1  0.81577200  0.30322500  0.09809700  1
  Li  Li21  1  0.97143400  0.46952400  0.86532900  1
  Li  Li22  1  0.60242800  0.08515600  0.74464000  1
  Li  Li23  1  0.65001900  0.14399500  0.28573100  1
  Mn  Mn24  1  0.23792200  0.73566300  0.51626800  1
  Mn  Mn25  1  0.98610000  0.48645200  0.52260000  1
  Mn  Mn26  1  0.74533800  0.74860900  0.00362000  1
  Mn  Mn27  1  0.98412700  0.98106800  0.02160900  1
  Mn  Mn28  1  0.23736600  0.23073100  0.02117600  1
  Mn  Mn29  1  0.48566800  0.48391600  0.02152500  1
  Mn  Mn30  1  0.48543800  0.98217600  0.52099000  1
  Mn  Mn31  1  0.74394200  0.24928800  0.50154800  1
  F  F32  1  0.10207300  0.95171300  0.80794400  1
  F  F33  1  0.00562500  0.87208100  0.57742800  1
  F  F34  1  0.27926300  0.96742600  0.48492600  1
  F  F35  1  0.11065900  0.74730800  0.09927700  1
  F  F36  1  0.20149600  0.83830400  0.30209800  1
  F  F37  1  0.09096200  0.44548700  0.30750300  1
  F  F38  1  0.59358700  0.94483300  0.30779000  1
  F  F39  1  0.32013500  0.63046100  0.69923300  1
  F  F40  1  0.50062900  0.86009200  0.09394200  1
  F  F41  1  0.00158000  0.35913900  0.09572000  1
  F  F42  1  0.41315600  0.72368700  0.91614400  1
  F  F43  1  0.22327400  0.52138500  0.48869200  1
  F  F44  1  0.28012400  0.45826100  0.98838200  1
  F  F45  1  0.76979500  0.97373000  0.99663100  1
  F  F46  1  0.10985800  0.24872600  0.60045000  1
  F  F47  1  0.60878100  0.74895100  0.60123800  1
  F  F48  1  0.48432900  0.66979700  0.41306300  1
  F  F49  1  0.37915000  0.56769200  0.20277900  1
  F  F50  1  0.66723800  0.85522600  0.80559100  1
  F  F51  1  0.19559500  0.33707500  0.80801900  1
  F  F52  1  0.82272700  0.63647200  0.19250100  1
  F  F53  1  0.32478900  0.13188700  0.20077100  1
  F  F54  1  0.59342400  0.44642100  0.80703300  1
  F  F55  1  0.50622800  0.34812600  0.60697500  1
  F  F56  1  0.42651000  0.22917800  0.41600300  1
  F  F57  1  0.92696600  0.72986500  0.41301800  1
  F  F58  1  0.21918700  0.02108300  0.99138900  1
  F  F59  1  0.71827800  0.53262100  0.98306000  1
  F  F60  1  0.77562700  0.47691200  0.48262700  1
  F  F61  1  0.61449900  0.25042900  0.09658200  1
  F  F62  1  0.99199300  0.65554500  0.91378300  1
  F  F63  1  0.48588000  0.17216400  0.90604200  1
  F  F64  1  0.69306700  0.34564400  0.29936900  1
  F  F65  1  0.39810200  0.07055200  0.70683200  1
  F  F66  1  0.88431300  0.57666800  0.70279500  1
  F  F67  1  0.79426700  0.14633300  0.69938000  1
  F  F68  1  0.92060000  0.22953600  0.91385900  1
  F  F69  1  0.70958900  0.03008100  0.50561100  1
  F  F70  1  0.98337400  0.18171700  0.40280500  1
  F  F71  1  0.88320200  0.06737400  0.20546300  1
