# generated using pymatgen
data_Li5Mn2(PO4)3
_symmetry_space_group_name_H-M   'P 1'
_cell_length_a   8.88905000
_cell_length_b   8.73199300
_cell_length_c   15.19423200
_cell_angle_alpha   55.95815112
_cell_angle_beta   90.00000000
_cell_angle_gamma   90.00000000
_symmetry_Int_Tables_number   1
_chemical_formula_structural   Li5Mn2(PO4)3
_chemical_formula_sum   'Li20 Mn8 P12 O48'
_cell_volume   977.25424599
_cell_formula_units_Z   4
loop_
 _symmetry_equiv_pos_site_id
 _symmetry_equiv_pos_as_xyz
  1  'x, y, z'
loop_
 _atom_site_type_symbol
 _atom_site_label
 _atom_site_symmetry_multiplicity
 _atom_site_fract_x
 _atom_site_fract_y
 _atom_site_fract_z
 _atom_site_occupancy
  Li  Li0  1  0.90112800  0.60965700  0.30850400  1
  Li  Li1  1  0.27495900  0.62523800  0.25301000  1
  Li  Li2  1  0.32471700  0.86849400  0.03560400  1
  Li  Li3  1  0.47653300  0.27836900  0.64836400  1
  Li  Li4  1  0.22543300  0.98113800  0.81915600  1
  Li  Li5  1  0.72543300  0.01886200  0.68084400  1
  Li  Li6  1  0.82471700  0.13150600  0.46439600  1
  Li  Li7  1  0.77495900  0.37476200  0.24699000  1
  Li  Li8  1  0.40112800  0.39034300  0.19149600  1
  Li  Li9  1  0.97653300  0.72163100  0.85163600  1
  Li  Li10  1  0.02346700  0.27836900  0.14836400  1
  Li  Li11  1  0.59887200  0.60965700  0.80850400  1
  Li  Li12  1  0.22504100  0.62523800  0.75301000  1
  Li  Li13  1  0.17528300  0.86849400  0.53560400  1
  Li  Li14  1  0.27456700  0.98113800  0.31915600  1
  Li  Li15  1  0.77456700  0.01886200  0.18084400  1
  Li  Li16  1  0.52346700  0.72163100  0.35163600  1
  Li  Li17  1  0.67528300  0.13150600  0.96439600  1
  Li  Li18  1  0.72504100  0.37476200  0.74699000  1
  Li  Li19  1  0.09887200  0.39034300  0.69149600  1
  Mn  Mn20  1  0.95703800  0.66128000  0.09631500  1
  Mn  Mn21  1  0.45703800  0.33872000  0.40368500  1
  Mn  Mn22  1  0.05035400  0.14754400  0.60596300  1
  Mn  Mn23  1  0.55035400  0.85245600  0.89403700  1
  Mn  Mn24  1  0.44964600  0.14754400  0.10596300  1
  Mn  Mn25  1  0.94964600  0.85245600  0.39403700  1
  Mn  Mn26  1  0.54296200  0.66128000  0.59631500  1
  Mn  Mn27  1  0.04296200  0.33872000  0.90368500  1
  P  P28  1  0.74835900  0.43776000  0.50645900  1
  P  P29  1  0.61102000  0.74507900  0.15287300  1
  P  P30  1  0.89287800  0.05444800  0.84261800  1
  P  P31  1  0.11102000  0.25492100  0.34712700  1
  P  P32  1  0.39287800  0.94555200  0.65738200  1
  P  P33  1  0.24835900  0.56224000  0.99354100  1
  P  P34  1  0.75164100  0.43776000  0.00645900  1
  P  P35  1  0.60712200  0.05444800  0.34261800  1
  P  P36  1  0.88898000  0.74507900  0.65287300  1
  P  P37  1  0.10712200  0.94555200  0.15738200  1
  P  P38  1  0.38898000  0.25492100  0.84712700  1
  P  P39  1  0.25164100  0.56224000  0.49354100  1
  O  O40  1  0.13310200  0.41029400  0.55583200  1
  O  O41  1  0.13629900  0.80309000  0.12689300  1
  O  O42  1  0.31514600  0.57251200  0.39480000  1
  O  O43  1  0.40671200  0.12777400  0.80540000  1
  O  O44  1  0.62020900  0.48398200  0.42590900  1
  O  O45  1  0.60772500  0.86587300  0.02957100  1
  O  O46  1  0.76602700  0.64453700  0.19151600  1
  O  O47  1  0.01954500  0.13361400  0.75705900  1
  O  O48  1  0.74004600  0.03586300  0.80036200  1
  O  O49  1  0.81536900  0.24255600  0.54585700  1
  O  O50  1  0.47889600  0.60385500  0.19779900  1
  O  O51  1  0.94802800  0.86297100  0.93443300  1
  O  O52  1  0.97889600  0.39614500  0.30220100  1
  O  O53  1  0.44802800  0.13702900  0.56556700  1
  O  O54  1  0.26602700  0.35546300  0.30848400  1
  O  O55  1  0.10772500  0.13412700  0.47042900  1
  O  O56  1  0.31536900  0.75744400  0.95414300  1
  O  O57  1  0.24004600  0.96413700  0.69963800  1
  O  O58  1  0.51954500  0.86638600  0.74294100  1
  O  O59  1  0.12020900  0.51601800  0.07409100  1
  O  O60  1  0.81514600  0.42748800  0.10520000  1
  O  O61  1  0.63629900  0.19691000  0.37310700  1
  O  O62  1  0.90671200  0.87222600  0.69460000  1
  O  O63  1  0.63310200  0.58970600  0.94416800  1
  O  O64  1  0.36689800  0.41029400  0.05583200  1
  O  O65  1  0.09328800  0.12777400  0.30540000  1
  O  O66  1  0.36370100  0.80309000  0.62689300  1
  O  O67  1  0.18485400  0.57251200  0.89480000  1
  O  O68  1  0.87979100  0.48398200  0.92590900  1
  O  O69  1  0.48045500  0.13361400  0.25705900  1
  O  O70  1  0.75995400  0.03586300  0.30036200  1
  O  O71  1  0.68463100  0.24255600  0.04585700  1
  O  O72  1  0.89227500  0.86587300  0.52957100  1
  O  O73  1  0.73397300  0.64453700  0.69151600  1
  O  O74  1  0.55197200  0.86297100  0.43443300  1
  O  O75  1  0.02110400  0.60385500  0.69779900  1
  O  O76  1  0.05197200  0.13702900  0.06556700  1
  O  O77  1  0.52110400  0.39614500  0.80220100  1
  O  O78  1  0.18463100  0.75744400  0.45414300  1
  O  O79  1  0.25995400  0.96413700  0.19963800  1
  O  O80  1  0.98045500  0.86638600  0.24294100  1
  O  O81  1  0.23397300  0.35546300  0.80848400  1
  O  O82  1  0.39227500  0.13412700  0.97042900  1
  O  O83  1  0.37979100  0.51601800  0.57409100  1
  O  O84  1  0.59328800  0.87222600  0.19460000  1
  O  O85  1  0.68485400  0.42748800  0.60520000  1
  O  O86  1  0.86370100  0.19691000  0.87310700  1
  O  O87  1  0.86689800  0.58970600  0.44416800  1
