# generated using pymatgen
data_Li4Mn7(PO4)6
_symmetry_space_group_name_H-M   'P 1'
_cell_length_a   9.06364747
_cell_length_b   9.06364747
_cell_length_c   6.66111869
_cell_angle_alpha   80.44764957
_cell_angle_beta   80.44764957
_cell_angle_gamma   106.03009464
_symmetry_Int_Tables_number   1
_chemical_formula_structural   Li4Mn7(PO4)6
_chemical_formula_sum   'Li4 Mn7 P6 O24'
_cell_volume   505.52694483
_cell_formula_units_Z   1
loop_
 _symmetry_equiv_pos_site_id
 _symmetry_equiv_pos_as_xyz
  1  'x, y, z'
loop_
 _atom_site_type_symbol
 _atom_site_label
 _atom_site_symmetry_multiplicity
 _atom_site_fract_x
 _atom_site_fract_y
 _atom_site_fract_z
 _atom_site_occupancy
  Li  Li0  1  0.99132300  0.99132300  0.49001300  1
  Li  Li1  1  0.63109000  0.63109000  0.57665400  1
  Li  Li2  1  0.54872100  0.31746800  0.49682200  1
  Li  Li3  1  0.31746800  0.54872100  0.49682200  1
  Mn  Mn4  1  0.35771700  0.00164900  0.19277900  1
  Mn  Mn5  1  0.00164900  0.35771700  0.19277900  1
  Mn  Mn6  1  0.99656100  0.99656100  0.99797900  1
  Mn  Mn7  1  0.66537500  0.33385100  0.00504200  1
  Mn  Mn8  1  0.33385100  0.66537500  0.00504200  1
  Mn  Mn9  1  0.99728100  0.63751900  0.81401400  1
  Mn  Mn10  1  0.63751900  0.99728100  0.81401400  1
  P  P11  1  0.28142100  0.90687400  0.70375100  1
  P  P12  1  0.90687400  0.28142100  0.70375100  1
  P  P13  1  0.66990700  0.66990700  0.08563000  1
  P  P14  1  0.32477800  0.32477800  0.91450400  1
  P  P15  1  0.71098200  0.07678300  0.30471300  1
  P  P16  1  0.07678300  0.71098200  0.30471300  1
  O  O17  1  0.64932600  0.95526200  0.51340100  1
  O  O18  1  0.95526200  0.64932600  0.51340100  1
  O  O19  1  0.95055000  0.37495800  0.87646200  1
  O  O20  1  0.37495800  0.95055000  0.87646200  1
  O  O21  1  0.79764400  0.79764400  0.13516300  1
  O  O22  1  0.74602100  0.57640400  0.94018800  1
  O  O23  1  0.57640400  0.74602100  0.94018800  1
  O  O24  1  0.89586000  0.10247600  0.75784700  1
  O  O25  1  0.10247600  0.89586000  0.75784700  1
  O  O26  1  0.27442500  0.72959200  0.71016800  1
  O  O27  1  0.72959200  0.27442500  0.71016800  1
  O  O28  1  0.55745100  0.55745100  0.28795100  1
  O  O29  1  0.43563000  0.43563000  0.70722300  1
  O  O30  1  0.70198400  0.24835100  0.30706100  1
  O  O31  1  0.24835100  0.70198400  0.30706100  1
  O  O32  1  0.89363600  0.10270800  0.23941200  1
  O  O33  1  0.10270800  0.89363600  0.23941200  1
  O  O34  1  0.19494500  0.19494500  0.87415800  1
  O  O35  1  0.61576400  0.02659400  0.13774100  1
  O  O36  1  0.02659400  0.61576400  0.13774100  1
  O  O37  1  0.24958600  0.42392100  0.04896200  1
  O  O38  1  0.42392100  0.24958600  0.04896200  1
  O  O39  1  0.02807800  0.36060100  0.49740200  1
  O  O40  1  0.36060100  0.02807800  0.49740200  1
