# generated using pymatgen
data_LiMn3(BO3)3
_symmetry_space_group_name_H-M   'P 1'
_cell_length_a   5.34574800
_cell_length_b   5.94514815
_cell_length_c   12.84466946
_cell_angle_alpha   93.64937485
_cell_angle_beta   89.88362561
_cell_angle_gamma   114.71594835
_symmetry_Int_Tables_number   1
_chemical_formula_structural   LiMn3(BO3)3
_chemical_formula_sum   'Li2 Mn6 B6 O18'
_cell_volume   369.93553624
_cell_formula_units_Z   2
loop_
 _symmetry_equiv_pos_site_id
 _symmetry_equiv_pos_as_xyz
  1  'x, y, z'
loop_
 _atom_site_type_symbol
 _atom_site_label
 _atom_site_symmetry_multiplicity
 _atom_site_fract_x
 _atom_site_fract_y
 _atom_site_fract_z
 _atom_site_occupancy
  Li  Li0  1  0.80334600  0.93224400  0.26171900  1
  Li  Li1  1  0.19665400  0.06775600  0.73828100  1
  Mn  Mn2  1  0.24465500  0.85706400  0.12441100  1
  Mn  Mn3  1  0.41648600  0.43450700  0.19302100  1
  Mn  Mn4  1  0.10207000  0.78243800  0.52798100  1
  Mn  Mn5  1  0.89793000  0.21756200  0.47201900  1
  Mn  Mn6  1  0.58351400  0.56549300  0.80697900  1
  Mn  Mn7  1  0.75534500  0.14293600  0.87558900  1
  B  B8  1  0.71854300  0.79766800  0.02929200  1
  B  B9  1  0.95681200  0.56537500  0.30502500  1
  B  B10  1  0.63217800  0.91506000  0.64502000  1
  B  B11  1  0.36782200  0.08494000  0.35498000  1
  B  B12  1  0.04318800  0.43462500  0.69497500  1
  B  B13  1  0.28145700  0.20233200  0.97070800  1
  O  O14  1  0.94434200  0.74708700  0.02602500  1
  O  O15  1  0.59390800  0.80681500  0.12393300  1
  O  O16  1  0.40554700  0.18464400  0.06396600  1
  O  O17  1  0.11697400  0.57487000  0.21811000  1
  O  O18  1  0.72577600  0.60180100  0.30313100  1
  O  O19  1  0.06342900  0.53316400  0.40308000  1
  O  O20  1  0.77938200  0.92566200  0.55365800  1
  O  O21  1  0.23525700  0.08700400  0.26256000  1
  O  O22  1  0.37516300  0.91818300  0.64381100  1
  O  O23  1  0.62483700  0.08181700  0.35618900  1
  O  O24  1  0.76474300  0.91299600  0.73744000  1
  O  O25  1  0.22061800  0.07433800  0.44634200  1
  O  O26  1  0.93657100  0.46683600  0.59692000  1
  O  O27  1  0.27422400  0.39819900  0.69686900  1
  O  O28  1  0.88302600  0.42513000  0.78189000  1
  O  O29  1  0.59445300  0.81535600  0.93603400  1
  O  O30  1  0.40609200  0.19318500  0.87606700  1
  O  O31  1  0.05565800  0.25291300  0.97397500  1
