# generated using pymatgen
data_Li3CrO4
_symmetry_space_group_name_H-M   'P 1'
_cell_length_a   5.03548276
_cell_length_b   5.03548276
_cell_length_c   6.21722900
_cell_angle_alpha   90.00000000
_cell_angle_beta   90.00000000
_cell_angle_gamma   105.80252294
_symmetry_Int_Tables_number   1
_chemical_formula_structural   Li3CrO4
_chemical_formula_sum   'Li6 Cr2 O8'
_cell_volume   151.68657790
_cell_formula_units_Z   2
loop_
 _symmetry_equiv_pos_site_id
 _symmetry_equiv_pos_as_xyz
  1  'x, y, z'
loop_
 _atom_site_type_symbol
 _atom_site_label
 _atom_site_symmetry_multiplicity
 _atom_site_fract_x
 _atom_site_fract_y
 _atom_site_fract_z
 _atom_site_occupancy
  Li  Li0  1  0.25875200  0.25778300  0.75111700  1
  Li  Li1  1  0.25778300  0.25875200  0.25111700  1
  Li  Li2  1  0.22750000  0.77250000  0.01362800  1
  Li  Li3  1  0.74221700  0.74124800  0.75111700  1
  Li  Li4  1  0.74124800  0.74221700  0.25111700  1
  Li  Li5  1  0.77250000  0.22750000  0.51362800  1
  Cr  Cr6  1  0.75241400  0.24758600  0.05901000  1
  Cr  Cr7  1  0.24758600  0.75241400  0.55901000  1
  O  O8  1  0.02406100  0.52544800  0.73591000  1
  O  O9  1  0.54549500  0.45450500  0.97666300  1
  O  O10  1  0.52544800  0.02406100  0.23591000  1
  O  O11  1  0.45450500  0.54549500  0.47666300  1
  O  O12  1  0.03970000  0.96030000  0.47524600  1
  O  O13  1  0.97593900  0.47455200  0.23591000  1
  O  O14  1  0.96030000  0.03970000  0.97524600  1
  O  O15  1  0.47455200  0.97593900  0.73591000  1
