# generated using pymatgen
data_LiNiPO4
_symmetry_space_group_name_H-M   'P 1'
_cell_length_a   4.92084900
_cell_length_b   11.33804106
_cell_length_c   5.98041604
_cell_angle_alpha   90.01226115
_cell_angle_beta   90.00336510
_cell_angle_gamma   89.99966858
_symmetry_Int_Tables_number   1
_chemical_formula_structural   LiNiPO4
_chemical_formula_sum   'Li4 Ni4 P4 O16'
_cell_volume   333.66407627
_cell_formula_units_Z   4
loop_
 _symmetry_equiv_pos_site_id
 _symmetry_equiv_pos_as_xyz
  1  'x, y, z'
loop_
 _atom_site_type_symbol
 _atom_site_label
 _atom_site_symmetry_multiplicity
 _atom_site_fract_x
 _atom_site_fract_y
 _atom_site_fract_z
 _atom_site_occupancy
  Li  Li0  1  0.98833200  0.06190700  0.21483000  1
  Li  Li1  1  0.48841200  0.43810900  0.71471100  1
  Li  Li2  1  0.98840500  0.56183900  0.28530900  1
  Li  Li3  1  0.48830500  0.93817200  0.78519900  1
  Ni  Ni4  1  0.48515700  0.66815000  0.04738300  1
  Ni  Ni5  1  0.98509000  0.83188300  0.54734800  1
  Ni  Ni6  1  0.48520600  0.16811000  0.45268900  1
  Ni  Ni7  1  0.98521200  0.33186200  0.95263700  1
  P  P8  1  0.99802400  0.08980100  0.72916300  1
  P  P9  1  0.49813500  0.41020500  0.22903200  1
  P  P10  1  0.99814200  0.58978500  0.77091900  1
  P  P11  1  0.49807100  0.91023000  0.27086700  1
  O  O12  1  0.39184900  0.03853700  0.24027800  1
  O  O13  1  0.89185900  0.46148700  0.74025000  1
  O  O14  1  0.39181300  0.53848900  0.25976000  1
  O  O15  1  0.89186100  0.96147600  0.75970200  1
  O  O16  1  0.31237300  0.08902700  0.70855400  1
  O  O17  1  0.81243700  0.41100100  0.20850800  1
  O  O18  1  0.31244800  0.58897300  0.79144700  1
  O  O19  1  0.81237400  0.91099600  0.29141500  1
  O  O20  1  0.91454700  0.16008200  0.94264500  1
  O  O21  1  0.41505000  0.33978500  0.44227600  1
  O  O22  1  0.91506000  0.66020500  0.55764300  1
  O  O23  1  0.41472000  0.83985600  0.05748800  1
  O  O24  1  0.88018600  0.14684400  0.51230700  1
  O  O25  1  0.38015100  0.35314700  0.01222400  1
  O  O26  1  0.88017700  0.64681400  0.98772800  1
  O  O27  1  0.38016100  0.85322400  0.48768900  1
