# generated using pymatgen
data_Li4Ni2(PO4)3
_symmetry_space_group_name_H-M   'P 1'
_cell_length_a   8.75161300
_cell_length_b   8.89770800
_cell_length_c   12.23551900
_cell_angle_alpha   90.00000000
_cell_angle_beta   90.00000000
_cell_angle_gamma   90.00000000
_symmetry_Int_Tables_number   1
_chemical_formula_structural   Li4Ni2(PO4)3
_chemical_formula_sum   'Li16 Ni8 P12 O48'
_cell_volume   952.77126300
_cell_formula_units_Z   4
loop_
 _symmetry_equiv_pos_site_id
 _symmetry_equiv_pos_as_xyz
  1  'x, y, z'
loop_
 _atom_site_type_symbol
 _atom_site_label
 _atom_site_symmetry_multiplicity
 _atom_site_fract_x
 _atom_site_fract_y
 _atom_site_fract_z
 _atom_site_occupancy
  Li  Li0  1  0.92814800  0.55246600  0.71351600  1
  Li  Li1  1  0.57185200  0.55246600  0.28648400  1
  Li  Li2  1  0.26240100  0.70260700  0.81925300  1
  Li  Li3  1  0.23759900  0.70260700  0.18074700  1
  Li  Li4  1  0.76240100  0.79739300  0.68074700  1
  Li  Li5  1  0.73759900  0.79739300  0.31925300  1
  Li  Li6  1  0.42814800  0.94753400  0.78648400  1
  Li  Li7  1  0.07185200  0.94753400  0.21351600  1
  Li  Li8  1  0.92814800  0.05246600  0.78648400  1
  Li  Li9  1  0.57185200  0.05246600  0.21351600  1
  Li  Li10  1  0.26240100  0.20260700  0.68074700  1
  Li  Li11  1  0.23759900  0.20260700  0.31925300  1
  Li  Li12  1  0.76240100  0.29739300  0.81925300  1
  Li  Li13  1  0.73759900  0.29739300  0.18074700  1
  Li  Li14  1  0.42814800  0.44753400  0.71351600  1
  Li  Li15  1  0.07185200  0.44753400  0.28648400  1
  Ni  Ni16  1  0.54374800  0.75156800  0.10905200  1
  Ni  Ni17  1  0.95625200  0.75156800  0.89094800  1
  Ni  Ni18  1  0.45625200  0.74843200  0.60905200  1
  Ni  Ni19  1  0.04374800  0.74843200  0.39094800  1
  Ni  Ni20  1  0.95625200  0.25156800  0.60905200  1
  Ni  Ni21  1  0.54374800  0.25156800  0.39094800  1
  Ni  Ni22  1  0.45625200  0.24843200  0.89094800  1
  Ni  Ni23  1  0.04374800  0.24843200  0.10905200  1
  P  P24  1  0.75000000  0.54752500  0.50000000  1
  P  P25  1  0.25000000  0.95247500  0.00000000  1
  P  P26  1  0.75000000  0.04752500  0.00000000  1
  P  P27  1  0.25000000  0.45247500  0.50000000  1
  P  P28  1  0.60559500  0.60589000  0.85077300  1
  P  P29  1  0.89440500  0.60589000  0.14922700  1
  P  P30  1  0.10559500  0.89411000  0.64922700  1
  P  P31  1  0.39440500  0.89411000  0.35077300  1
  P  P32  1  0.60559500  0.10589000  0.64922700  1
  P  P33  1  0.89440500  0.10589000  0.35077300  1
  P  P34  1  0.10559500  0.39411000  0.85077300  1
  P  P35  1  0.39440500  0.39411000  0.14922700  1
  O  O36  1  0.35569600  0.54471000  0.57527800  1
  O  O37  1  0.14430400  0.54471000  0.42472200  1
  O  O38  1  0.09341400  0.56714000  0.83211000  1
  O  O39  1  0.40658600  0.56714000  0.16789000  1
  O  O40  1  0.66243700  0.65293800  0.57951300  1
  O  O41  1  0.83756300  0.65293800  0.42048700  1
  O  O42  1  0.76666500  0.65576800  0.81054600  1
  O  O43  1  0.73333500  0.65576800  0.18945400  1
  O  O44  1  0.57532800  0.65304900  0.96726200  1
  O  O45  1  0.92467200  0.65304900  0.03273800  1
  O  O46  1  0.47758400  0.67531800  0.77601400  1
  O  O47  1  0.02241600  0.67531800  0.22398600  1
  O  O48  1  0.97758400  0.82468200  0.72398600  1
  O  O49  1  0.52241600  0.82468200  0.27601400  1
  O  O50  1  0.07532800  0.84695100  0.53273800  1
  O  O51  1  0.42467200  0.84695100  0.46726200  1
  O  O52  1  0.23333500  0.84423200  0.31054600  1
  O  O53  1  0.26666500  0.84423200  0.68945400  1
  O  O54  1  0.16243700  0.84706200  0.92048700  1
  O  O55  1  0.33756300  0.84706200  0.07951300  1
  O  O56  1  0.59341400  0.93286000  0.66789000  1
  O  O57  1  0.90658600  0.93286000  0.33211000  1
  O  O58  1  0.85569600  0.95529000  0.92472200  1
  O  O59  1  0.64430400  0.95529000  0.07527800  1
  O  O60  1  0.14430400  0.04471000  0.07527800  1
  O  O61  1  0.35569600  0.04471000  0.92472200  1
  O  O62  1  0.09341400  0.06714000  0.66789000  1
  O  O63  1  0.40658600  0.06714000  0.33211000  1
  O  O64  1  0.66243700  0.15293800  0.92048700  1
  O  O65  1  0.83756300  0.15293800  0.07951300  1
  O  O66  1  0.76666500  0.15576800  0.68945400  1
  O  O67  1  0.73333500  0.15576800  0.31054600  1
  O  O68  1  0.57532800  0.15304900  0.53273800  1
  O  O69  1  0.92467200  0.15304900  0.46726200  1
  O  O70  1  0.47758400  0.17531800  0.72398600  1
  O  O71  1  0.02241600  0.17531800  0.27601400  1
  O  O72  1  0.97758400  0.32468200  0.77601400  1
  O  O73  1  0.52241600  0.32468200  0.22398600  1
  O  O74  1  0.07532800  0.34695100  0.96726200  1
  O  O75  1  0.42467200  0.34695100  0.03273800  1
  O  O76  1  0.26666500  0.34423200  0.81054600  1
  O  O77  1  0.23333500  0.34423200  0.18945400  1
  O  O78  1  0.16243700  0.34706200  0.57951300  1
  O  O79  1  0.33756300  0.34706200  0.42048700  1
  O  O80  1  0.59341400  0.43286000  0.83211000  1
  O  O81  1  0.90658600  0.43286000  0.16789000  1
  O  O82  1  0.85569600  0.45529000  0.57527800  1
  O  O83  1  0.64430400  0.45529000  0.42472200  1
