# generated using pymatgen
data_Li2Mn5(Si2O5)6
_symmetry_space_group_name_H-M   'P 1'
_cell_length_a   10.40591907
_cell_length_b   10.40591907
_cell_length_c   14.67722100
_cell_angle_alpha   90.00000000
_cell_angle_beta   90.00000000
_cell_angle_gamma   119.99999411
_symmetry_Int_Tables_number   1
_chemical_formula_structural   Li2Mn5(Si2O5)6
_chemical_formula_sum   'Li4 Mn10 Si24 O60'
_cell_volume   1376.37057449
_cell_formula_units_Z   2
loop_
 _symmetry_equiv_pos_site_id
 _symmetry_equiv_pos_as_xyz
  1  'x, y, z'
loop_
 _atom_site_type_symbol
 _atom_site_label
 _atom_site_symmetry_multiplicity
 _atom_site_fract_x
 _atom_site_fract_y
 _atom_site_fract_z
 _atom_site_occupancy
  Li  Li0  1  0.33333300  0.66666700  0.75000000  1
  Li  Li1  1  0.00000000  0.00000000  0.50000000  1
  Li  Li2  1  0.00000000  0.00000000  0.00000000  1
  Li  Li3  1  0.66666700  0.33333300  0.25000000  1
  Mn  Mn4  1  0.00000000  0.49891900  0.50000000  1
  Mn  Mn5  1  0.00000000  0.49891900  0.00000000  1
  Mn  Mn6  1  0.33333300  0.66666700  0.00385300  1
  Mn  Mn7  1  0.33333300  0.66666700  0.49614700  1
  Mn  Mn8  1  0.50108100  0.50108100  0.00000000  1
  Mn  Mn9  1  0.50108100  0.50108100  0.50000000  1
  Mn  Mn10  1  0.66666700  0.33333300  0.99614700  1
  Mn  Mn11  1  0.66666700  0.33333300  0.50385300  1
  Mn  Mn12  1  0.49891900  0.00000000  0.00000000  1
  Mn  Mn13  1  0.49891900  0.00000000  0.50000000  1
  Si  Si14  1  0.11333400  0.76554700  0.35866700  1
  Si  Si15  1  0.11333400  0.76554700  0.14133300  1
  Si  Si16  1  0.23372700  0.88619100  0.85915600  1
  Si  Si17  1  0.23372700  0.88619100  0.64084400  1
  Si  Si18  1  0.11380900  0.34753500  0.85915600  1
  Si  Si19  1  0.11380900  0.34753500  0.64084400  1
  Si  Si20  1  0.23445300  0.34778700  0.14133300  1
  Si  Si21  1  0.23445300  0.34778700  0.35866700  1
  Si  Si22  1  0.65221300  0.88666600  0.14133300  1
  Si  Si23  1  0.65221300  0.88666600  0.35866700  1
  Si  Si24  1  0.34778700  0.23445300  0.64133300  1
  Si  Si25  1  0.34778700  0.23445300  0.85866700  1
  Si  Si26  1  0.65246500  0.76627300  0.64084400  1
  Si  Si27  1  0.65246500  0.76627300  0.85915600  1
  Si  Si28  1  0.34753500  0.11380900  0.35915600  1
  Si  Si29  1  0.34753500  0.11380900  0.14084400  1
  Si  Si30  1  0.76627300  0.65246500  0.14084400  1
  Si  Si31  1  0.76627300  0.65246500  0.35915600  1
  Si  Si32  1  0.88666600  0.65221300  0.85866700  1
  Si  Si33  1  0.88666600  0.65221300  0.64133300  1
  Si  Si34  1  0.76554700  0.11333400  0.85866700  1
  Si  Si35  1  0.76554700  0.11333400  0.64133300  1
  Si  Si36  1  0.88619100  0.23372700  0.14084400  1
  Si  Si37  1  0.88619100  0.23372700  0.35915600  1
  O  O38  1  0.05702900  0.78531700  0.61475100  1
  O  O39  1  0.05702900  0.78531700  0.88524900  1
  O  O40  1  0.21784600  0.94348000  0.38371400  1
  O  O41  1  0.21784600  0.94348000  0.11628600  1
  O  O42  1  0.12388800  0.74209300  0.25000000  1
  O  O43  1  0.15505800  0.66187200  0.41800300  1
  O  O44  1  0.15505800  0.66187200  0.08199700  1
  O  O45  1  0.25686700  0.86332600  0.75000000  1
  O  O46  1  0.15839400  0.49796800  0.91460400  1
  O  O47  1  0.15839400  0.49796800  0.58539600  1
  O  O48  1  0.05652000  0.27436600  0.11628600  1
  O  O49  1  0.05652000  0.27436600  0.38371400  1
  O  O50  1  0.33957400  0.84160600  0.91460400  1
  O  O51  1  0.33957400  0.84160600  0.58539600  1
  O  O52  1  0.13667400  0.39354100  0.75000000  1
  O  O53  1  0.25790700  0.38179500  0.25000000  1
  O  O54  1  0.50681400  0.84494200  0.41800300  1
  O  O55  1  0.50681400  0.84494200  0.08199700  1
  O  O56  1  0.21468300  0.27171300  0.88524900  1
  O  O57  1  0.21468300  0.27171300  0.61475100  1
  O  O58  1  0.33812800  0.49318600  0.41800300  1
  O  O59  1  0.33812800  0.49318600  0.08199700  1
  O  O60  1  0.27171300  0.21468300  0.11475100  1
  O  O61  1  0.27171300  0.21468300  0.38524900  1
  O  O62  1  0.61820500  0.87611200  0.25000000  1
  O  O63  1  0.50203200  0.66042600  0.58539600  1
  O  O64  1  0.50203200  0.66042600  0.91460400  1
  O  O65  1  0.27436600  0.05652000  0.88371400  1
  O  O66  1  0.27436600  0.05652000  0.61628600  1
  O  O67  1  0.60645900  0.74313300  0.75000000  1
  O  O68  1  0.38179500  0.25790700  0.75000000  1
  O  O69  1  0.72828700  0.94297100  0.88524900  1
  O  O70  1  0.72828700  0.94297100  0.61475100  1
  O  O71  1  0.49318600  0.33812800  0.91800300  1
  O  O72  1  0.49318600  0.33812800  0.58199700  1
  O  O73  1  0.39354100  0.13667400  0.25000000  1
  O  O74  1  0.72563400  0.78215400  0.11628600  1
  O  O75  1  0.72563400  0.78215400  0.38371400  1
  O  O76  1  0.66042600  0.50203200  0.08539600  1
  O  O77  1  0.66042600  0.50203200  0.41460400  1
  O  O78  1  0.78215400  0.72563400  0.88371400  1
  O  O79  1  0.78215400  0.72563400  0.61628600  1
  O  O80  1  0.49796800  0.15839400  0.08539600  1
  O  O81  1  0.49796800  0.15839400  0.41460400  1
  O  O82  1  0.74313300  0.60645900  0.25000000  1
  O  O83  1  0.87611200  0.61820500  0.75000000  1
  O  O84  1  0.66187200  0.15505800  0.91800300  1
  O  O85  1  0.66187200  0.15505800  0.58199700  1
  O  O86  1  0.94297100  0.72828700  0.11475100  1
  O  O87  1  0.94297100  0.72828700  0.38524900  1
  O  O88  1  0.84494200  0.50681400  0.91800300  1
  O  O89  1  0.84494200  0.50681400  0.58199700  1
  O  O90  1  0.74209300  0.12388800  0.75000000  1
  O  O91  1  0.84160600  0.33957400  0.08539600  1
  O  O92  1  0.84160600  0.33957400  0.41460400  1
  O  O93  1  0.86332600  0.25686700  0.25000000  1
  O  O94  1  0.78531700  0.05702900  0.11475100  1
  O  O95  1  0.78531700  0.05702900  0.38524900  1
  O  O96  1  0.94348000  0.21784600  0.88371400  1
  O  O97  1  0.94348000  0.21784600  0.61628600  1
