# generated using pymatgen
data_Li2Mn3(BO3)3
_symmetry_space_group_name_H-M   'P 1'
_cell_length_a   6.34770800
_cell_length_b   8.26135141
_cell_length_c   8.57343803
_cell_angle_alpha   117.33710819
_cell_angle_beta   107.57478609
_cell_angle_gamma   91.19952350
_symmetry_Int_Tables_number   1
_chemical_formula_structural   Li2Mn3(BO3)3
_chemical_formula_sum   'Li4 Mn6 B6 O18'
_cell_volume   373.92132187
_cell_formula_units_Z   2
loop_
 _symmetry_equiv_pos_site_id
 _symmetry_equiv_pos_as_xyz
  1  'x, y, z'
loop_
 _atom_site_type_symbol
 _atom_site_label
 _atom_site_symmetry_multiplicity
 _atom_site_fract_x
 _atom_site_fract_y
 _atom_site_fract_z
 _atom_site_occupancy
  Li  Li0  1  0.10214400  0.02093200  0.72313000  1
  Li  Li1  1  0.61518400  0.02937400  0.72465400  1
  Li  Li2  1  0.38690300  0.27310700  0.29703100  1
  Li  Li3  1  0.24090900  0.69978500  0.98289400  1
  Mn  Mn4  1  0.33354500  0.62931800  0.62180600  1
  Mn  Mn5  1  0.83508000  0.62923600  0.62619100  1
  Mn  Mn6  1  0.98710300  0.37356200  0.02687400  1
  Mn  Mn7  1  0.49556400  0.37549300  0.01905400  1
  Mn  Mn8  1  0.68681500  0.99109300  0.33696200  1
  Mn  Mn9  1  0.18796300  0.98912800  0.36912700  1
  B  B10  1  0.57969300  0.32102900  0.65655000  1
  B  B11  1  0.10395500  0.33991600  0.68030000  1
  B  B12  1  0.41259800  0.66838500  0.34329200  1
  B  B13  1  0.92268800  0.68531400  0.34053600  1
  B  B14  1  0.47604900  0.99649600  0.97899700  1
  B  B15  1  0.00220800  0.98945000  0.99927300  1
  O  O16  1  0.41974200  0.08539400  0.87247500  1
  O  O17  1  0.93198200  0.08517200  0.89883500  1
  O  O18  1  0.50000100  0.12925800  0.53142100  1
  O  O19  1  0.02827000  0.14964500  0.56470200  1
  O  O20  1  0.67498700  0.37582800  0.84178000  1
  O  O21  1  0.18368100  0.41849800  0.87343100  1
  O  O22  1  0.56172300  0.10092600  0.17080700  1
  O  O23  1  0.10726100  0.09093800  0.19350300  1
  O  O24  1  0.55777400  0.43724300  0.57833900  1
  O  O25  1  0.09711300  0.45734200  0.60345300  1
  O  O26  1  0.44091700  0.80360000  0.89317700  1
  O  O27  1  0.97984000  0.80045700  0.90595500  1
  O  O28  1  0.32314100  0.48008600  0.24179000  1
  O  O29  1  0.81172800  0.50511900  0.22805100  1
  O  O30  1  0.04344700  0.75326800  0.53005100  1
  O  O31  1  0.52441600  0.74960600  0.53921500  1
  O  O32  1  0.38952400  0.77857600  0.25927300  1
  O  O33  1  0.91423800  0.80373900  0.26344500  1
