# generated using pymatgen
data_LiFeF4
_symmetry_space_group_name_H-M   'P 1'
_cell_length_a   5.08075800
_cell_length_b   7.37307700
_cell_length_c   7.47995127
_cell_angle_alpha   78.48283709
_cell_angle_beta   90.00000000
_cell_angle_gamma   90.00000000
_symmetry_Int_Tables_number   1
_chemical_formula_structural   LiFeF4
_chemical_formula_sum   'Li4 Fe4 F16'
_cell_volume   274.56316103
_cell_formula_units_Z   4
loop_
 _symmetry_equiv_pos_site_id
 _symmetry_equiv_pos_as_xyz
  1  'x, y, z'
loop_
 _atom_site_type_symbol
 _atom_site_label
 _atom_site_symmetry_multiplicity
 _atom_site_fract_x
 _atom_site_fract_y
 _atom_site_fract_z
 _atom_site_occupancy
  Li  Li0  1  0.24124900  0.84135600  0.85501000  1
  Li  Li1  1  0.25875100  0.34135600  0.85501000  1
  Li  Li2  1  0.74124900  0.65864400  0.14499000  1
  Li  Li3  1  0.75875100  0.15864400  0.14499000  1
  Fe  Fe4  1  0.74306300  0.68232700  0.68296000  1
  Fe  Fe5  1  0.75693700  0.18232700  0.68296000  1
  Fe  Fe6  1  0.24306300  0.81767300  0.31704000  1
  Fe  Fe7  1  0.25693700  0.31767300  0.31704000  1
  F  F8  1  0.91455800  0.69642500  0.90784000  1
  F  F9  1  0.58544200  0.19642500  0.90784000  1
  F  F10  1  0.42862600  0.58814600  0.80226000  1
  F  F11  1  0.07137400  0.08814600  0.80226000  1
  F  F12  1  0.90404600  0.43744300  0.68462900  1
  F  F13  1  0.06927200  0.80127000  0.55888300  1
  F  F14  1  0.59595400  0.93744300  0.68462900  1
  F  F15  1  0.43072800  0.30127000  0.55888300  1
  F  F16  1  0.56927200  0.69873000  0.44111700  1
  F  F17  1  0.40404600  0.06255700  0.31537100  1
  F  F18  1  0.93072800  0.19873000  0.44111700  1
  F  F19  1  0.09595400  0.56255700  0.31537100  1
  F  F20  1  0.92862600  0.91185400  0.19774000  1
  F  F21  1  0.57137400  0.41185400  0.19774000  1
  F  F22  1  0.41455800  0.80357500  0.09216000  1
  F  F23  1  0.08544200  0.30357500  0.09216000  1
