# generated using pymatgen
data_LiCr(Si2O5)3
_symmetry_space_group_name_H-M   'P 1'
_cell_length_a   9.97292547
_cell_length_b   9.97292547
_cell_length_c   14.23242200
_cell_angle_alpha   90.00000000
_cell_angle_beta   90.00000000
_cell_angle_gamma   120.03082850
_symmetry_Int_Tables_number   1
_chemical_formula_structural   LiCr(Si2O5)3
_chemical_formula_sum   'Li4 Cr4 Si24 O60'
_cell_volume   1225.51771759
_cell_formula_units_Z   4
loop_
 _symmetry_equiv_pos_site_id
 _symmetry_equiv_pos_as_xyz
  1  'x, y, z'
loop_
 _atom_site_type_symbol
 _atom_site_label
 _atom_site_symmetry_multiplicity
 _atom_site_fract_x
 _atom_site_fract_y
 _atom_site_fract_z
 _atom_site_occupancy
  Li  Li0  1  0.00000000  0.00000000  0.75000500  1
  Li  Li1  1  0.00000000  0.50000000  0.74994100  1
  Li  Li2  1  0.00000000  0.00000000  0.25000500  1
  Li  Li3  1  0.50000000  0.00000000  0.24994100  1
  Cr  Cr4  1  0.16176300  0.82390500  0.24996900  1
  Cr  Cr5  1  0.82390500  0.16176300  0.74996900  1
  Cr  Cr6  1  0.83823700  0.17609500  0.24996900  1
  Cr  Cr7  1  0.17609500  0.83823700  0.74996900  1
  Si  Si8  1  0.26677300  0.62765100  0.88883200  1
  Si  Si9  1  0.73499200  0.86336600  0.38833700  1
  Si  Si10  1  0.73326600  0.86112700  0.61066400  1
  Si  Si11  1  0.26644500  0.62726800  0.11057700  1
  Si  Si12  1  0.37273200  0.73355500  0.61057700  1
  Si  Si13  1  0.62741600  0.86098000  0.88989000  1
  Si  Si14  1  0.62844500  0.86347500  0.11179400  1
  Si  Si15  1  0.37234900  0.73322700  0.38883200  1
  Si  Si16  1  0.86347500  0.62844500  0.61179400  1
  Si  Si17  1  0.13663400  0.26500800  0.88833700  1
  Si  Si18  1  0.13887300  0.26673400  0.11066400  1
  Si  Si19  1  0.86098000  0.62741600  0.38989000  1
  Si  Si20  1  0.13652500  0.37155500  0.61179400  1
  Si  Si21  1  0.13902000  0.37258400  0.38989000  1
  Si  Si22  1  0.86336600  0.73499200  0.88833700  1
  Si  Si23  1  0.86112700  0.73326600  0.11066400  1
  Si  Si24  1  0.37258400  0.13902000  0.88989000  1
  Si  Si25  1  0.62765100  0.26677300  0.38883200  1
  Si  Si26  1  0.62726800  0.26644500  0.61057700  1
  Si  Si27  1  0.37155500  0.13652500  0.11179400  1
  Si  Si28  1  0.73322700  0.37234900  0.88883200  1
  Si  Si29  1  0.26673400  0.13887300  0.61066400  1
  Si  Si30  1  0.73355500  0.37273200  0.11057700  1
  Si  Si31  1  0.26500800  0.13663400  0.38833700  1
  O  O32  1  0.26438200  0.55153100  0.63657300  1
  O  O33  1  0.73551500  0.78722900  0.86369500  1
  O  O34  1  0.73429500  0.78588300  0.13552700  1
  O  O35  1  0.26435000  0.55064300  0.36355600  1
  O  O36  1  0.55077100  0.78589700  0.63656100  1
  O  O37  1  0.44935700  0.73565000  0.86355600  1
  O  O38  1  0.55155300  0.78539200  0.36400900  1
  O  O39  1  0.44846900  0.73561800  0.13657300  1
  O  O40  1  0.76448000  0.90716400  0.49983900  1
  O  O41  1  0.23548200  0.64181400  0.99979100  1
  O  O42  1  0.35818600  0.76451800  0.49979100  1
  O  O43  1  0.64167700  0.90735600  0.00045100  1
  O  O44  1  0.84088700  0.01239900  0.67551600  1
  O  O45  1  0.84063200  0.01307600  0.32303400  1
  O  O46  1  0.15888500  0.67154700  0.82468600  1
  O  O47  1  0.16308300  0.68189100  0.17184100  1
  O  O48  1  0.98692400  0.15936800  0.82303400  1
  O  O49  1  0.01356200  0.67308100  0.67680900  1
  O  O50  1  0.98760100  0.15911300  0.17551600  1
  O  O51  1  0.01859000  0.68213300  0.32813500  1
  O  O52  1  0.21277100  0.26448500  0.36369500  1
  O  O53  1  0.21411700  0.26570500  0.63552700  1
  O  O54  1  0.78539200  0.55155300  0.86400900  1
  O  O55  1  0.78589700  0.55077100  0.13656100  1
  O  O56  1  0.68213300  0.01859000  0.82813500  1
  O  O57  1  0.31810900  0.83691700  0.67184100  1
  O  O58  1  0.67308100  0.01356200  0.17680900  1
  O  O59  1  0.32845300  0.84111500  0.32468600  1
  O  O60  1  0.90735600  0.64167700  0.50045100  1
  O  O61  1  0.09283600  0.23552000  0.99983900  1
  O  O62  1  0.09264400  0.35832300  0.50045100  1
  O  O63  1  0.90716400  0.76448000  0.99983900  1
  O  O64  1  0.68189100  0.16308300  0.67184100  1
  O  O65  1  0.67154700  0.15888500  0.32468600  1
  O  O66  1  0.31786700  0.98141000  0.82813500  1
  O  O67  1  0.32691900  0.98643800  0.17680900  1
  O  O68  1  0.21460800  0.44844700  0.86400900  1
  O  O69  1  0.78588300  0.73429500  0.63552700  1
  O  O70  1  0.21410300  0.44922900  0.13656100  1
  O  O71  1  0.78722900  0.73551500  0.36369500  1
  O  O72  1  0.98643800  0.32691900  0.67680900  1
  O  O73  1  0.01307600  0.84063200  0.82303400  1
  O  O74  1  0.98141000  0.31786700  0.32813500  1
  O  O75  1  0.01239900  0.84088700  0.17551600  1
  O  O76  1  0.15911300  0.98760100  0.67551600  1
  O  O77  1  0.84111500  0.32845300  0.82468600  1
  O  O78  1  0.83691700  0.31810900  0.17184100  1
  O  O79  1  0.15936800  0.98692400  0.32303400  1
  O  O80  1  0.64181400  0.23548200  0.49979100  1
  O  O81  1  0.35832300  0.09264400  0.00045100  1
  O  O82  1  0.23552000  0.09283600  0.49983900  1
  O  O83  1  0.76451800  0.35818600  0.99979100  1
  O  O84  1  0.44844700  0.21460800  0.36400900  1
  O  O85  1  0.55064300  0.26435000  0.86355600  1
  O  O86  1  0.44922900  0.21410300  0.63656100  1
  O  O87  1  0.55153100  0.26438200  0.13657300  1
  O  O88  1  0.73565000  0.44935700  0.36355600  1
  O  O89  1  0.73561800  0.44846900  0.63657300  1
  O  O90  1  0.26448500  0.21277100  0.86369500  1
  O  O91  1  0.26570500  0.21411700  0.13552700  1
