# generated using pymatgen
data_Li2Mn3(BO3)3
_symmetry_space_group_name_H-M   'P 1'
_cell_length_a   5.29067300
_cell_length_b   6.19039957
_cell_length_c   11.78718440
_cell_angle_alpha   84.53090902
_cell_angle_beta   78.93543990
_cell_angle_gamma   87.36212381
_symmetry_Int_Tables_number   1
_chemical_formula_structural   Li2Mn3(BO3)3
_chemical_formula_sum   'Li4 Mn6 B6 O18'
_cell_volume   376.99385716
_cell_formula_units_Z   2
loop_
 _symmetry_equiv_pos_site_id
 _symmetry_equiv_pos_as_xyz
  1  'x, y, z'
loop_
 _atom_site_type_symbol
 _atom_site_label
 _atom_site_symmetry_multiplicity
 _atom_site_fract_x
 _atom_site_fract_y
 _atom_site_fract_z
 _atom_site_occupancy
  Li  Li0  1  0.83946700  0.14056000  0.45796600  1
  Li  Li1  1  0.18658500  0.45967700  0.80237800  1
  Li  Li2  1  0.15555500  0.85538500  0.54008300  1
  Li  Li3  1  0.52245300  0.78833100  0.13207400  1
  Mn  Mn4  1  0.02372900  0.02813300  0.78854000  1
  Mn  Mn5  1  0.64928600  0.62468400  0.87877100  1
  Mn  Mn6  1  0.30270400  0.30313000  0.55054100  1
  Mn  Mn7  1  0.69154300  0.68988700  0.44659600  1
  Mn  Mn8  1  0.34967700  0.36403300  0.12011500  1
  Mn  Mn9  1  0.98085500  0.96382800  0.21082000  1
  B  B10  1  0.74498100  0.40807700  0.66385400  1
  B  B11  1  0.07657600  0.74096800  0.99814700  1
  B  B12  1  0.40787800  0.07200700  0.32975500  1
  B  B13  1  0.58928000  0.90868600  0.66913300  1
  B  B14  1  0.92033900  0.26466500  0.00447100  1
  B  B15  1  0.25553900  0.61337100  0.33512400  1
  O  O16  1  0.68374500  0.36699400  0.99037100  1
  O  O17  1  0.10100100  0.20890600  0.91404400  1
  O  O18  1  0.99081300  0.35667800  0.68623000  1
  O  O19  1  0.55104500  0.48115500  0.74821200  1
  O  O20  1  0.69213300  0.38067500  0.55358600  1
  O  O21  1  0.01215900  0.70835900  0.89068600  1
  O  O22  1  0.66096600  0.02824500  0.34313100  1
  O  O23  1  0.65480900  0.90030100  0.78022500  1
  O  O24  1  0.21657000  0.12361600  0.42067700  1
  O  O25  1  0.78181700  0.87482400  0.57479800  1
  O  O26  1  0.34675100  0.04530300  0.22048600  1
  O  O27  1  0.34001000  0.96822000  0.65415800  1
  O  O28  1  0.97206400  0.24076300  0.11867100  1
  O  O29  1  0.30305300  0.61667900  0.44825300  1
  O  O30  1  0.43335100  0.53961500  0.24840900  1
  O  O31  1  0.01431500  0.70131600  0.31596700  1
  O  O32  1  0.88770700  0.81500000  0.08371600  1
  O  O33  1  0.32671400  0.68844000  0.01349500  1
