# generated using pymatgen
data_Li3V3P8O29
_symmetry_space_group_name_H-M   'P 1'
_cell_length_a   9.76316800
_cell_length_b   9.76334159
_cell_length_c   14.20847964
_cell_angle_alpha   89.66333695
_cell_angle_beta   89.49759170
_cell_angle_gamma   60.09683237
_symmetry_Int_Tables_number   1
_chemical_formula_structural   Li3V3P8O29
_chemical_formula_sum   'Li6 V6 P16 O58'
_cell_volume   1174.01344928
_cell_formula_units_Z   2
loop_
 _symmetry_equiv_pos_site_id
 _symmetry_equiv_pos_as_xyz
  1  'x, y, z'
loop_
 _atom_site_type_symbol
 _atom_site_label
 _atom_site_symmetry_multiplicity
 _atom_site_fract_x
 _atom_site_fract_y
 _atom_site_fract_z
 _atom_site_occupancy
  Li  Li0  1  0.33157800  0.31969400  0.89681800  1
  Li  Li1  1  0.22882900  0.68751700  0.05661600  1
  Li  Li2  1  0.32662200  0.76808400  0.44423000  1
  Li  Li3  1  0.66594400  0.23589800  0.55625400  1
  Li  Li4  1  0.96083700  0.05489100  0.99642800  1
  Li  Li5  1  0.00029600  0.99808500  0.49868800  1
  V  V6  1  0.43976400  0.56128000  0.24797700  1
  V  V7  1  0.57084800  0.43263800  0.75357200  1
  V  V8  1  0.43306200  0.00077500  0.75049600  1
  V  V9  1  0.56331100  0.99698700  0.24501000  1
  V  V10  1  0.00117700  0.43776700  0.25349900  1
  V  V11  1  0.99826500  0.56497300  0.74313000  1
  P  P12  1  0.08478500  0.22124600  0.84221200  1
  P  P13  1  0.22231700  0.08213200  0.33879800  1
  P  P14  1  0.08474900  0.69608200  0.34539300  1
  P  P15  1  0.33205600  0.33630600  0.13192300  1
  P  P16  1  0.33925300  0.33213100  0.63147900  1
  P  P17  1  0.22198400  0.68058000  0.83937500  1
  P  P18  1  0.31408500  0.77353000  0.66066000  1
  P  P19  1  0.69346000  0.08500700  0.84704600  1
  P  P20  1  0.30461600  0.91616900  0.15329600  1
  P  P21  1  0.68559400  0.22133400  0.34020600  1
  P  P22  1  0.78412800  0.30696400  0.16102500  1
  P  P23  1  0.66357600  0.66820100  0.36624000  1
  P  P24  1  0.66825100  0.66817000  0.86821300  1
  P  P25  1  0.91989000  0.29958900  0.65605700  1
  P  P26  1  0.77638300  0.92031300  0.66069000  1
  P  P27  1  0.91854700  0.77640600  0.16038800  1
  O  O28  1  0.99189500  0.20418900  0.57056400  1
  O  O29  1  0.09031500  0.25790100  0.33289300  1
  O  O30  1  0.21268600  0.98689400  0.06714300  1
  O  O31  1  0.26215600  0.08560700  0.83232400  1
  O  O32  1  0.09207000  0.37631600  0.83078700  1
  O  O33  1  0.18547700  0.34032500  0.17910300  1
  O  O34  1  0.07574400  0.54210800  0.33317500  1
  O  O35  1  0.00560500  0.78543500  0.07659200  1
  O  O36  1  0.08153000  0.64989600  0.82938400  1
  O  O37  1  0.34014900  0.18698900  0.68122800  1
  O  O38  1  0.38413800  0.07466400  0.32694100  1
  O  O39  1  0.18915200  0.47767600  0.67625700  1
  O  O40  1  0.32718500  0.34422200  0.02683100  1
  O  O41  1  0.34494600  0.32732400  0.52725500  1
  O  O42  1  0.33140000  0.48864500  0.17000400  1
  O  O43  1  0.53015300  0.09457500  0.83690500  1
  O  O44  1  0.47764400  0.18778800  0.17330900  1
  O  O45  1  0.26272400  0.65147300  0.33411200  1
  O  O46  1  0.20358200  0.79140200  0.75011900  1
  O  O47  1  0.23442100  0.78363900  0.57005600  1
  O  O48  1  0.22064800  0.75804700  0.92898600  1
  O  O49  1  0.37566400  0.51632400  0.82571700  1
  O  O50  1  0.48954200  0.33164800  0.67172600  1
  O  O51  1  0.34699900  0.73851300  0.16341800  1
  O  O52  1  0.52915000  0.38089600  0.32335000  1
  O  O53  1  0.64942600  0.08596100  0.32646000  1
  O  O54  1  0.20032200  0.00098900  0.24579200  1
  O  O55  1  0.20808300  0.99550700  0.42176900  1
  O  O56  1  0.79150600  0.00666400  0.57813100  1
  O  O57  1  0.34799600  0.91258400  0.67139900  1
  O  O58  1  0.46818900  0.61613100  0.67693700  1
  O  O59  1  0.65482900  0.26142700  0.83215500  1
  O  O60  1  0.51274600  0.66859000  0.32285300  1
  O  O61  1  0.62109700  0.46322400  0.17399700  1
  O  O62  1  0.79536300  0.21527000  0.07650000  1
  O  O63  1  0.75887200  0.21588300  0.43249100  1
  O  O64  1  0.80188300  0.20536500  0.25561100  1
  O  O65  1  0.74171900  0.34383900  0.66518400  1
  O  O66  1  0.52805600  0.81899900  0.82251200  1
  O  O67  1  0.46045400  0.92171000  0.16747700  1
  O  O68  1  0.65655700  0.52522800  0.82333800  1
  O  O69  1  0.66579500  0.66585900  0.97195100  1
  O  O70  1  0.64833200  0.67316900  0.47033200  1
  O  O71  1  0.81203200  0.52109800  0.32413800  1
  O  O72  1  0.61577300  0.92705700  0.67247100  1
  O  O73  1  0.66257600  0.81366600  0.31846900  1
  O  O74  1  0.91524300  0.35075700  0.17080500  1
  O  O75  1  0.00131400  0.20102100  0.74993900  1
  O  O76  1  0.00757600  0.20210400  0.92684300  1
  O  O77  1  0.92714200  0.45483300  0.66919600  1
  O  O78  1  0.81855800  0.65439900  0.81891500  1
  O  O79  1  0.92269800  0.61631500  0.17404700  1
  O  O80  1  0.74268900  0.90958000  0.16590500  1
  O  O81  1  0.78946500  0.01374500  0.93180100  1
  O  O82  1  0.79780600  0.99743400  0.75496700  1
  O  O83  1  0.91020600  0.74335100  0.66535600  1
  O  O84  1  0.01562600  0.79276300  0.43099400  1
  O  O85  1  0.99916400  0.79972700  0.25309800  1
