# generated using pymatgen
data_LiTa3O8
_symmetry_space_group_name_H-M   'P 1'
_cell_length_a   7.77965500
_cell_length_b   8.99835100
_cell_length_c   16.98935053
_cell_angle_alpha   89.69511873
_cell_angle_beta   90.00000000
_cell_angle_gamma   90.00000000
_symmetry_Int_Tables_number   1
_chemical_formula_structural   LiTa3O8
_chemical_formula_sum   'Li8 Ta24 O64'
_cell_volume   1189.30678365
_cell_formula_units_Z   8
loop_
 _symmetry_equiv_pos_site_id
 _symmetry_equiv_pos_as_xyz
  1  'x, y, z'
loop_
 _atom_site_type_symbol
 _atom_site_label
 _atom_site_symmetry_multiplicity
 _atom_site_fract_x
 _atom_site_fract_y
 _atom_site_fract_z
 _atom_site_occupancy
  Li  Li0  1  0.00000000  0.68796200  0.75168000  1
  Li  Li1  1  0.50000000  0.91758900  0.59499900  1
  Li  Li2  1  0.00000000  0.47167200  0.50563800  1
  Li  Li3  1  0.50000000  0.52723700  0.49469500  1
  Li  Li4  1  0.00000000  0.08309200  0.40842200  1
  Li  Li5  1  0.50000000  0.32044100  0.24855100  1
  Li  Li6  1  0.00000000  0.07963400  0.08296900  1
  Li  Li7  1  0.50000000  0.53259400  0.00514400  1
  Ta  Ta8  1  0.74711900  0.18994600  0.94009500  1
  Ta  Ta9  1  0.25288100  0.18994600  0.94009500  1
  Ta  Ta10  1  0.25157300  0.60225500  0.87165600  1
  Ta  Ta11  1  0.74842700  0.60225500  0.87165600  1
  Ta  Ta12  1  0.75175100  0.31324600  0.74885800  1
  Ta  Ta13  1  0.25284200  0.94918200  0.75066300  1
  Ta  Ta14  1  0.74715800  0.94918200  0.75066300  1
  Ta  Ta15  1  0.24824900  0.31324600  0.74885800  1
  Ta  Ta16  1  0.25435100  0.60819300  0.63203200  1
  Ta  Ta17  1  0.74564900  0.60819300  0.63203200  1
  Ta  Ta18  1  0.74862600  0.19073000  0.55967900  1
  Ta  Ta19  1  0.25137400  0.19073000  0.55967900  1
  Ta  Ta20  1  0.24837500  0.80942800  0.44067500  1
  Ta  Ta21  1  0.75162500  0.80942800  0.44067500  1
  Ta  Ta22  1  0.75426100  0.39218400  0.36821700  1
  Ta  Ta23  1  0.24573900  0.39218400  0.36821700  1
  Ta  Ta24  1  0.25170600  0.68499600  0.25050800  1
  Ta  Ta25  1  0.74829400  0.68499600  0.25050800  1
  Ta  Ta26  1  0.75157300  0.05058000  0.24992200  1
  Ta  Ta27  1  0.24842700  0.05058000  0.24992200  1
  Ta  Ta28  1  0.75558200  0.39488100  0.12828300  1
  Ta  Ta29  1  0.24441800  0.39488100  0.12828300  1
  Ta  Ta30  1  0.25000800  0.81344000  0.06033400  1
  Ta  Ta31  1  0.74999200  0.81344000  0.06033400  1
  O  O32  1  0.24934300  0.00674600  0.00682200  1
  O  O33  1  0.75065700  0.00674600  0.00682200  1
  O  O34  1  0.22343600  0.66415300  0.97927200  1
  O  O35  1  0.77656400  0.66415300  0.97927200  1
  O  O36  1  0.00000000  0.19305200  0.95600500  1
  O  O37  1  0.50000000  0.16840500  0.92845000  1
  O  O38  1  0.50000000  0.57866600  0.89278600  1
  O  O39  1  0.24331200  0.37881400  0.86629500  1
  O  O40  1  0.75668800  0.37881400  0.86629500  1
  O  O41  1  0.00000000  0.60942200  0.85578400  1
  O  O42  1  0.72092400  0.80042300  0.83040300  1
  O  O43  1  0.27907600  0.80042300  0.83040300  1
  O  O44  1  0.22772500  0.12218200  0.82482600  1
  O  O45  1  0.77227500  0.12218200  0.82482600  1
  O  O46  1  0.26777300  0.54713500  0.74882700  1
  O  O47  1  0.00000000  0.32799700  0.74822600  1
  O  O48  1  0.73222700  0.54713500  0.74882700  1
  O  O49  1  0.50000000  0.98159500  0.74541000  1
  O  O50  1  0.50000000  0.30151500  0.74746400  1
  O  O51  1  0.00000000  0.90698700  0.74678500  1
  O  O52  1  0.22335500  0.12482900  0.67251500  1
  O  O53  1  0.77664500  0.12482900  0.67251500  1
  O  O54  1  0.70984900  0.81370100  0.66005400  1
  O  O55  1  0.29015100  0.81370100  0.66005400  1
  O  O56  1  0.00000000  0.61465300  0.64512700  1
  O  O57  1  0.24337500  0.38187700  0.63003100  1
  O  O58  1  0.75662500  0.38187700  0.63003100  1
  O  O59  1  0.50000000  0.58598100  0.60513000  1
  O  O60  1  0.50000000  0.15505900  0.57144400  1
  O  O61  1  0.00000000  0.20623400  0.53813000  1
  O  O62  1  0.20936400  0.65316300  0.51987500  1
  O  O63  1  0.79063600  0.65316300  0.51987500  1
  O  O64  1  0.24970300  0.99965800  0.49981500  1
  O  O65  1  0.75029700  0.99965800  0.49981500  1
  O  O66  1  0.70954500  0.34661000  0.47970600  1
  O  O67  1  0.29045500  0.34661000  0.47970600  1
  O  O68  1  0.50000000  0.79318500  0.46047500  1
  O  O69  1  0.00000000  0.84476300  0.42763900  1
  O  O70  1  0.00000000  0.41389200  0.39460800  1
  O  O71  1  0.74374500  0.61724100  0.36903900  1
  O  O72  1  0.25625500  0.61724100  0.36903900  1
  O  O73  1  0.50000000  0.38487100  0.35548900  1
  O  O74  1  0.20805200  0.18605800  0.33878100  1
  O  O75  1  0.79194800  0.18605800  0.33878100  1
  O  O76  1  0.72371200  0.87515600  0.32684200  1
  O  O77  1  0.27628800  0.87515600  0.32684200  1
  O  O78  1  0.00000000  0.69635500  0.25190000  1
  O  O79  1  0.00000000  0.01748900  0.25112500  1
  O  O80  1  0.76531600  0.44870400  0.25067100  1
  O  O81  1  0.50000000  0.67037500  0.25108100  1
  O  O82  1  0.50000000  0.09894000  0.25150900  1
  O  O83  1  0.23468400  0.44870400  0.25067100  1
  O  O84  1  0.72542500  0.87519400  0.17663900  1
  O  O85  1  0.27457500  0.87519400  0.17663900  1
  O  O86  1  0.21380800  0.18822300  0.16279100  1
  O  O87  1  0.78619200  0.18822300  0.16279100  1
  O  O88  1  0.50000000  0.39083300  0.14389600  1
  O  O89  1  0.74724200  0.61804600  0.13291800  1
  O  O90  1  0.25275800  0.61804600  0.13291800  1
  O  O91  1  0.00000000  0.40892200  0.11152500  1
  O  O92  1  0.00000000  0.84163600  0.07431200  1
  O  O93  1  0.50000000  0.79281500  0.05092900  1
  O  O94  1  0.70996500  0.34474400  0.01948600  1
  O  O95  1  0.29003500  0.34474400  0.01948600  1
