# generated using pymatgen
data_Li12MnV3P4(CO7)4
_symmetry_space_group_name_H-M   'P 1'
_cell_length_a   6.62461300
_cell_length_b   8.50343700
_cell_length_c   10.01419855
_cell_angle_alpha   85.00857420
_cell_angle_beta   90.00000000
_cell_angle_gamma   90.00000000
_symmetry_Int_Tables_number   1
_chemical_formula_structural   Li12MnV3P4(CO7)4
_chemical_formula_sum   'Li12 Mn1 V3 P4 C4 O28'
_cell_volume   561.98033115
_cell_formula_units_Z   1
loop_
 _symmetry_equiv_pos_site_id
 _symmetry_equiv_pos_as_xyz
  1  'x, y, z'
loop_
 _atom_site_type_symbol
 _atom_site_label
 _atom_site_symmetry_multiplicity
 _atom_site_fract_x
 _atom_site_fract_y
 _atom_site_fract_z
 _atom_site_occupancy
  Li  Li0  1  0.00000000  0.90291900  0.61842800  1
  Li  Li1  1  0.00000000  0.90712700  0.11863600  1
  Li  Li2  1  0.22360400  0.72185400  0.87553900  1
  Li  Li3  1  0.77639600  0.72185400  0.87553900  1
  Li  Li4  1  0.22336900  0.72401700  0.37640200  1
  Li  Li5  1  0.77663100  0.72401700  0.37640200  1
  Li  Li6  1  0.72474300  0.27768800  0.62400000  1
  Li  Li7  1  0.27525700  0.27768800  0.62400000  1
  Li  Li8  1  0.72270000  0.27706500  0.12330800  1
  Li  Li9  1  0.27730000  0.27706500  0.12330800  1
  Li  Li10  1  0.50000000  0.09508400  0.88237100  1
  Li  Li11  1  0.50000000  0.09464400  0.38256600  1
  Mn  Mn12  1  0.00000000  0.33954400  0.38976000  1
  V  V13  1  0.50000000  0.66988100  0.60403300  1
  V  V14  1  0.50000000  0.67005000  0.10357800  1
  V  V15  1  0.00000000  0.32989000  0.89689900  1
  P  P16  1  0.00000000  0.58769900  0.64110600  1
  P  P17  1  0.00000000  0.59126900  0.13811800  1
  P  P18  1  0.50000000  0.41106600  0.86001000  1
  P  P19  1  0.50000000  0.41092300  0.36035400  1
  C  C20  1  0.50000000  0.96445200  0.65060900  1
  C  C21  1  0.50000000  0.96445900  0.15039700  1
  C  C22  1  0.00000000  0.03537100  0.84963100  1
  C  C23  1  0.00000000  0.03286900  0.35104000  1
  O  O24  1  0.50000000  0.92473200  0.52790100  1
  O  O25  1  0.00000000  0.88956000  0.82254900  1
  O  O26  1  0.50000000  0.92498500  0.02771100  1
  O  O27  1  0.50000000  0.85148400  0.74735700  1
  O  O28  1  0.00000000  0.88694000  0.32166000  1
  O  O29  1  0.50000000  0.85137100  0.24712900  1
  O  O30  1  0.18241400  0.69001700  0.58788700  1
  O  O31  1  0.81758600  0.69001700  0.58788700  1
  O  O32  1  0.18293600  0.69209200  0.08482000  1
  O  O33  1  0.81706400  0.69209200  0.08482000  1
  O  O34  1  0.50000000  0.57783700  0.91043600  1
  O  O35  1  0.00000000  0.56973000  0.79797900  1
  O  O36  1  0.50000000  0.57778800  0.41062300  1
  O  O37  1  0.00000000  0.57522800  0.29488100  1
  O  O38  1  0.50000000  0.43046600  0.70336900  1
  O  O39  1  0.00000000  0.42024800  0.59141500  1
  O  O40  1  0.50000000  0.43031900  0.20359900  1
  O  O41  1  0.00000000  0.42196000  0.09168200  1
  O  O42  1  0.31751700  0.30840100  0.91293000  1
  O  O43  1  0.68248300  0.30840100  0.91293000  1
  O  O44  1  0.68326100  0.30880300  0.41281400  1
  O  O45  1  0.31673900  0.30880300  0.41281400  1
  O  O46  1  0.00000000  0.14880300  0.75310800  1
  O  O47  1  0.50000000  0.11068000  0.67762000  1
  O  O48  1  0.00000000  0.14579700  0.25402200  1
  O  O49  1  0.00000000  0.07523500  0.97244500  1
  O  O50  1  0.50000000  0.11062000  0.17757100  1
  O  O51  1  0.00000000  0.06909900  0.47400600  1
