# generated using pymatgen
data_Li3Mn4(BO3)4
_symmetry_space_group_name_H-M   'P 1'
_cell_length_a   7.92521200
_cell_length_b   8.28649730
_cell_length_c   9.06395908
_cell_angle_alpha   111.98483125
_cell_angle_beta   114.00781727
_cell_angle_gamma   81.63193730
_symmetry_Int_Tables_number   1
_chemical_formula_structural   Li3Mn4(BO3)4
_chemical_formula_sum   'Li6 Mn8 B8 O24'
_cell_volume   504.19899131
_cell_formula_units_Z   2
loop_
 _symmetry_equiv_pos_site_id
 _symmetry_equiv_pos_as_xyz
  1  'x, y, z'
loop_
 _atom_site_type_symbol
 _atom_site_label
 _atom_site_symmetry_multiplicity
 _atom_site_fract_x
 _atom_site_fract_y
 _atom_site_fract_z
 _atom_site_occupancy
  Li  Li0  1  0.05182400  0.62521000  0.81119200  1
  Li  Li1  1  0.28851000  0.37190300  0.30068600  1
  Li  Li2  1  0.44272400  0.87213300  0.19183400  1
  Li  Li3  1  0.53861000  0.12360400  0.79648600  1
  Li  Li4  1  0.69052200  0.61978900  0.68960900  1
  Li  Li5  1  0.80350400  0.87619900  0.30728800  1
  Mn  Mn6  1  0.15548600  0.08613700  0.33026600  1
  Mn  Mn7  1  0.08449200  0.66475700  0.17795700  1
  Mn  Mn8  1  0.33075900  0.41753200  0.68070100  1
  Mn  Mn9  1  0.59055200  0.16380300  0.17625900  1
  Mn  Mn10  1  0.39891600  0.84025200  0.81369700  1
  Mn  Mn11  1  0.66867700  0.57208800  0.31314500  1
  Mn  Mn12  1  0.92181900  0.32265900  0.83312800  1
  Mn  Mn13  1  0.84166500  0.91300900  0.67292900  1
  B  B14  1  0.08530700  0.65521700  0.50052300  1
  B  B15  1  0.33782800  0.40965100  0.00575800  1
  B  B16  1  0.16972400  0.08671300  0.00059600  1
  B  B17  1  0.58340400  0.15886600  0.50767700  1
  B  B18  1  0.41816700  0.83335900  0.48735900  1
  B  B19  1  0.82983200  0.90527500  0.00112100  1
  B  B20  1  0.66400100  0.59838800  0.98997200  1
  B  B21  1  0.91959000  0.35413000  0.50660300  1
  O  O22  1  0.12082100  0.17651500  0.13690400  1
  O  O23  1  0.09470400  0.27769200  0.53031200  1
  O  O24  1  0.06285400  0.09362300  0.83658700  1
  O  O25  1  0.16026900  0.58006300  0.38015800  1
  O  O26  1  0.17719100  0.64526500  0.66721000  1
  O  O27  1  0.43362100  0.39757300  0.16994900  1
  O  O28  1  0.16999300  0.49955600  0.97609500  1
  O  O29  1  0.42286200  0.25746000  0.48297800  1
  O  O30  1  0.33524500  0.99089600  0.02346300  1
  O  O31  1  0.30952100  0.84088600  0.32123800  1
  O  O32  1  0.40868000  0.33368300  0.88113900  1
  O  O33  1  0.63577800  0.06048200  0.37210400  1
  O  O34  1  0.36754300  0.92830000  0.62155500  1
  O  O35  1  0.61094900  0.68795500  0.12660600  1
  O  O36  1  0.68761300  0.15009500  0.67274400  1
  O  O37  1  0.66531800  0.99874100  0.97084500  1
  O  O38  1  0.58450300  0.74030200  0.51267800  1
  O  O39  1  0.83664700  0.52279000  0.01309700  1
  O  O40  1  0.54784400  0.59454200  0.82127700  1
  O  O41  1  0.80603600  0.34755200  0.34136600  1
  O  O42  1  0.86581500  0.43795600  0.64368800  1
  O  O43  1  0.92958200  0.89845800  0.16770800  1
  O  O44  1  0.91654900  0.74319200  0.46680200  1
  O  O45  1  0.88656000  0.81037400  0.86849000  1
