# generated using pymatgen
data_Li2Si5Ni2O13
_symmetry_space_group_name_H-M   'P 1'
_cell_length_a   7.53701400
_cell_length_b   7.65593695
_cell_length_c   9.77943784
_cell_angle_alpha   83.58276788
_cell_angle_beta   111.84128848
_cell_angle_gamma   108.24908308
_symmetry_Int_Tables_number   1
_chemical_formula_structural   Li2Si5Ni2O13
_chemical_formula_sum   'Li4 Si10 Ni4 O26'
_cell_volume   497.44331430
_cell_formula_units_Z   2
loop_
 _symmetry_equiv_pos_site_id
 _symmetry_equiv_pos_as_xyz
  1  'x, y, z'
loop_
 _atom_site_type_symbol
 _atom_site_label
 _atom_site_symmetry_multiplicity
 _atom_site_fract_x
 _atom_site_fract_y
 _atom_site_fract_z
 _atom_site_occupancy
  Li  Li0  1  0.21106000  0.92867700  0.15061800  1
  Li  Li1  1  0.15512700  0.60011700  0.25956800  1
  Li  Li2  1  0.84487300  0.39988300  0.74043200  1
  Li  Li3  1  0.78894000  0.07132300  0.84938200  1
  Si  Si4  1  0.16487700  0.78348500  0.74295100  1
  Si  Si5  1  0.20827000  0.30725100  0.95247900  1
  Si  Si6  1  0.31115500  0.54625300  0.59425600  1
  Si  Si7  1  0.25047600  0.24294000  0.26861200  1
  Si  Si8  1  0.62043100  0.29199500  0.94812900  1
  Si  Si9  1  0.37956900  0.70800500  0.05187100  1
  Si  Si10  1  0.74952400  0.75706000  0.73138800  1
  Si  Si11  1  0.68884500  0.45374700  0.40574400  1
  Si  Si12  1  0.79173000  0.69274900  0.04752100  1
  Si  Si13  1  0.83512300  0.21651500  0.25704900  1
  Ni  Ni14  1  0.03838700  0.85551400  0.40192600  1
  Ni  Ni15  1  0.41288500  0.16886500  0.59478900  1
  Ni  Ni16  1  0.58711500  0.83113500  0.40521100  1
  Ni  Ni17  1  0.96161300  0.14448600  0.59807400  1
  O  O18  1  0.01404700  0.22428900  0.81068900  1
  O  O19  1  0.16604000  0.95345100  0.62544900  1
  O  O20  1  0.31199900  0.84934500  0.91339300  1
  O  O21  1  0.22081500  0.61107100  0.70379100  1
  O  O22  1  0.06088400  0.31553100  0.25097600  1
  O  O23  1  0.40900200  0.32103500  0.92481200  1
  O  O24  1  0.21807200  0.32340600  0.57118000  1
  O  O25  1  0.28804900  0.68523400  0.45500600  1
  O  O26  1  0.55480500  0.57799600  0.68539000  1
  O  O27  1  0.38337700  0.78501500  0.19997900  1
  O  O28  1  0.20958800  0.50556300  0.00338300  1
  O  O29  1  0.27465700  0.07169600  0.38080500  1
  O  O30  1  0.20913000  0.17274000  0.10074900  1
  O  O31  1  0.79087000  0.82726000  0.89925100  1
  O  O32  1  0.72534300  0.92830400  0.61919500  1
  O  O33  1  0.79041200  0.49443700  0.99661700  1
  O  O34  1  0.61662300  0.21498500  0.80002100  1
  O  O35  1  0.44519500  0.42200400  0.31461000  1
  O  O36  1  0.71195100  0.31476600  0.54499400  1
  O  O37  1  0.78192800  0.67659400  0.42882000  1
  O  O38  1  0.59099800  0.67896500  0.07518800  1
  O  O39  1  0.93911600  0.68446900  0.74902400  1
  O  O40  1  0.77918500  0.38892900  0.29620900  1
  O  O41  1  0.68800100  0.15065500  0.08660700  1
  O  O42  1  0.83396000  0.04654900  0.37455100  1
  O  O43  1  0.98595300  0.77571100  0.18931100  1
