# generated using pymatgen
data_LiFeSiO4
_symmetry_space_group_name_H-M   'P 1'
_cell_length_a   4.91198300
_cell_length_b   6.30860400
_cell_length_c   9.13467800
_cell_angle_alpha   90.00000000
_cell_angle_beta   90.00000000
_cell_angle_gamma   90.00000000
_symmetry_Int_Tables_number   1
_chemical_formula_structural   LiFeSiO4
_chemical_formula_sum   'Li4 Fe4 Si4 O16'
_cell_volume   283.06316936
_cell_formula_units_Z   4
loop_
 _symmetry_equiv_pos_site_id
 _symmetry_equiv_pos_as_xyz
  1  'x, y, z'
loop_
 _atom_site_type_symbol
 _atom_site_label
 _atom_site_symmetry_multiplicity
 _atom_site_fract_x
 _atom_site_fract_y
 _atom_site_fract_z
 _atom_site_occupancy
  Li  Li0  1  0.97745200  0.75000000  0.66712900  1
  Li  Li1  1  0.52254800  0.75000000  0.16712900  1
  Li  Li2  1  0.47745200  0.25000000  0.83287100  1
  Li  Li3  1  0.02254800  0.25000000  0.33287100  1
  Fe  Fe4  1  0.00000000  0.50000000  0.00000000  1
  Fe  Fe5  1  0.00000000  0.00000000  0.00000000  1
  Fe  Fe6  1  0.50000000  0.00000000  0.50000000  1
  Fe  Fe7  1  0.50000000  0.50000000  0.50000000  1
  Si  Si8  1  0.97540700  0.25000000  0.67680400  1
  Si  Si9  1  0.52459300  0.25000000  0.17680400  1
  Si  Si10  1  0.47540700  0.75000000  0.82319600  1
  Si  Si11  1  0.02459300  0.75000000  0.32319600  1
  O  O12  1  0.09297700  0.75000000  0.14174000  1
  O  O13  1  0.80242700  0.75000000  0.87275500  1
  O  O14  1  0.67336100  0.46414900  0.11611100  1
  O  O15  1  0.67336100  0.03585100  0.11611100  1
  O  O16  1  0.82663900  0.46414900  0.61611100  1
  O  O17  1  0.82663900  0.03585100  0.61611100  1
  O  O18  1  0.69757300  0.75000000  0.37275500  1
  O  O19  1  0.40702300  0.75000000  0.64174000  1
  O  O20  1  0.59297700  0.25000000  0.35826000  1
  O  O21  1  0.30242700  0.25000000  0.62724500  1
  O  O22  1  0.32663900  0.96414900  0.88388900  1
  O  O23  1  0.32663900  0.53585100  0.88388900  1
  O  O24  1  0.17336100  0.96414900  0.38388900  1
  O  O25  1  0.17336100  0.53585100  0.38388900  1
  O  O26  1  0.19757300  0.25000000  0.12724500  1
  O  O27  1  0.90702300  0.25000000  0.85826000  1
