# generated using pymatgen
data_Li3V3P8O29
_symmetry_space_group_name_H-M   'P 1'
_cell_length_a   9.72560500
_cell_length_b   9.72970416
_cell_length_c   14.26069731
_cell_angle_alpha   90.33322667
_cell_angle_beta   89.84075665
_cell_angle_gamma   119.85978572
_symmetry_Int_Tables_number   1
_chemical_formula_structural   Li3V3P8O29
_chemical_formula_sum   'Li6 V6 P16 O58'
_cell_volume   1170.28647491
_cell_formula_units_Z   2
loop_
 _symmetry_equiv_pos_site_id
 _symmetry_equiv_pos_as_xyz
  1  'x, y, z'
loop_
 _atom_site_type_symbol
 _atom_site_label
 _atom_site_symmetry_multiplicity
 _atom_site_fract_x
 _atom_site_fract_y
 _atom_site_fract_z
 _atom_site_occupancy
  Li  Li0  1  0.91133200  0.23105800  0.94459700  1
  Li  Li1  1  0.09393700  0.32718800  0.55370900  1
  Li  Li2  1  0.90380800  0.67122200  0.44217100  1
  Li  Li3  1  0.67377800  0.90431800  0.05600400  1
  Li  Li4  1  0.06219300  0.98725300  0.99363400  1
  Li  Li5  1  0.99534700  0.99994600  0.49993700  1
  V  V6  1  0.00026800  0.43880600  0.75244300  1
  V  V7  1  0.00251100  0.56874800  0.24327000  1
  V  V8  1  0.43610900  0.43495700  0.24815900  1
  V  V9  1  0.56094500  0.56234700  0.75415200  1
  V  V10  1  0.43525500  0.00140400  0.74314400  1
  V  V11  1  0.56004300  0.00089900  0.25924000  1
  P  P12  1  0.30741600  0.08344900  0.16069600  1
  P  P13  1  0.30239600  0.22186400  0.66038300  1
  P  P14  1  0.78425600  0.08553800  0.65730700  1
  P  P15  1  0.66569300  0.32946800  0.86664100  1
  P  P16  1  0.67100900  0.34142700  0.36687900  1
  P  P17  1  0.90573100  0.22064800  0.16023800  1
  P  P18  1  0.08957400  0.31506000  0.33868800  1
  P  P19  1  0.77686800  0.69567300  0.15670200  1
  P  P20  1  0.21919000  0.30250600  0.84650800  1
  P  P21  1  0.90712500  0.68580400  0.65867700  1
  P  P22  1  0.08942100  0.78562100  0.83732400  1
  P  P23  1  0.33175100  0.66251800  0.63354700  1
  P  P24  1  0.33899200  0.66931800  0.13266000  1
  P  P25  1  0.21408100  0.91586500  0.34428900  1
  P  P26  1  0.69415300  0.77753700  0.34170600  1
  P  P27  1  0.68573200  0.91451900  0.83958600  1
  O  O28  1  0.19133300  0.99043600  0.42897000  1
  O  O29  1  0.34381800  0.08683400  0.66359700  1
  O  O30  1  0.19449000  0.20454300  0.93045500  1
  O  O31  1  0.34854600  0.25958600  0.16869300  1
  O  O32  1  0.46271500  0.07803700  0.17698700  1
  O  O33  1  0.52305600  0.18501200  0.81689500  1
  O  O34  1  0.62090200  0.07776100  0.66654300  1
  O  O35  1  0.76451000  0.99706800  0.92962000  1
  O  O36  1  0.73442100  0.07808800  0.16645900  1
  O  O37  1  0.52437100  0.33745300  0.31945200  1
  O  O38  1  0.45890300  0.38170200  0.67350400  1
  O  O39  1  0.66924400  0.18942800  0.32321200  1
  O  O40  1  0.67181500  0.32320800  0.97027900  1
  O  O41  1  0.67408200  0.34556000  0.47083000  1
  O  O42  1  0.81754900  0.32797600  0.82500200  1
  O  O43  1  0.61825100  0.53876600  0.16864500  1
  O  O44  1  0.66544300  0.47703000  0.82354700  1
  O  O45  1  0.91986400  0.26323700  0.66462200  1
  O  O46  1  0.99628700  0.20245700  0.24972400  1
  O  O47  1  0.01744100  0.23434300  0.42887500  1
  O  O48  1  0.98080000  0.21785500  0.06977900  1
  O  O49  1  0.90522700  0.37964000  0.17558200  1
  O  O50  1  0.81999800  0.49096600  0.32548000  1
  O  O51  1  0.08284500  0.34460000  0.83835700  1
  O  O52  1  0.90960900  0.52886000  0.67658400  1
  O  O53  1  0.73510300  0.65208300  0.67212400  1
  O  O54  1  0.19949000  0.19874000  0.75375700  1
  O  O55  1  0.20195200  0.20896000  0.57847600  1
  O  O56  1  0.79634000  0.79508600  0.42374400  1
  O  O57  1  0.26155500  0.34602600  0.32911800  1
  O  O58  1  0.08795300  0.47146000  0.32242800  1
  O  O59  1  0.91452500  0.65754000  0.16460300  1
  O  O60  1  0.18215000  0.51270300  0.67808200  1
  O  O61  1  0.08315100  0.62209900  0.82663500  1
  O  O62  1  0.00965700  0.80216500  0.92125000  1
  O  O63  1  0.97519100  0.75948400  0.56666000  1
  O  O64  1  0.00635500  0.80229600  0.74290200  1
  O  O65  1  0.08046300  0.73868000  0.33516700  1
  O  O66  1  0.33576200  0.52227700  0.17960600  1
  O  O67  1  0.38049100  0.45854800  0.83368700  1
  O  O68  1  0.18636100  0.66729200  0.17532300  1
  O  O69  1  0.34251000  0.66922300  0.02876100  1
  O  O70  1  0.32300600  0.64587200  0.52996500  1
  O  O71  1  0.33100400  0.81216100  0.67349800  1
  O  O72  1  0.53963100  0.61728000  0.33009900  1
  O  O73  1  0.47623600  0.66312400  0.68256000  1
  O  O74  1  0.26410700  0.91907600  0.82761500  1
  O  O75  1  0.19820900  0.99883800  0.25112500  1
  O  O76  1  0.21827800  0.00378000  0.07521100  1
  O  O77  1  0.37749300  0.91989800  0.33261300  1
  O  O78  1  0.48605200  0.81688700  0.17687300  1
  O  O79  1  0.52851700  0.91263700  0.82166700  1
  O  O80  1  0.65484900  0.74228500  0.83489100  1
  O  O81  1  0.79084400  0.79356700  0.07362800  1
  O  O82  1  0.79879500  0.80088300  0.24905400  1
  O  O83  1  0.65190000  0.91249200  0.33539500  1
  O  O84  1  0.81215800  0.00908700  0.57524600  1
  O  O85  1  0.80274900  0.00781400  0.75425700  1
