# generated using pymatgen
data_LiNi(PO3)3
_symmetry_space_group_name_H-M   'P 1'
_cell_length_a   7.20824400
_cell_length_b   9.07210800
_cell_length_c   11.77332500
_cell_angle_alpha   90.00000000
_cell_angle_beta   90.00000000
_cell_angle_gamma   90.00000000
_symmetry_Int_Tables_number   1
_chemical_formula_structural   LiNi(PO3)3
_chemical_formula_sum   'Li4 Ni4 P12 O36'
_cell_volume   769.90443899
_cell_formula_units_Z   4
loop_
 _symmetry_equiv_pos_site_id
 _symmetry_equiv_pos_as_xyz
  1  'x, y, z'
loop_
 _atom_site_type_symbol
 _atom_site_label
 _atom_site_symmetry_multiplicity
 _atom_site_fract_x
 _atom_site_fract_y
 _atom_site_fract_z
 _atom_site_occupancy
  Li  Li0  1  0.75000000  0.95848200  0.02195700  1
  Li  Li1  1  0.75000000  0.45848200  0.47804300  1
  Li  Li2  1  0.25000000  0.54151800  0.52195700  1
  Li  Li3  1  0.25000000  0.04151800  0.97804300  1
  Ni  Ni4  1  0.75000000  0.52017700  0.70878700  1
  Ni  Ni5  1  0.75000000  0.02017700  0.79121300  1
  Ni  Ni6  1  0.25000000  0.97982300  0.20878700  1
  Ni  Ni7  1  0.25000000  0.47982300  0.29121300  1
  P  P8  1  0.95783500  0.75209900  0.34796200  1
  P  P9  1  0.95783500  0.25209900  0.15203800  1
  P  P10  1  0.75000000  0.30689300  0.95322800  1
  P  P11  1  0.75000000  0.80689300  0.54677200  1
  P  P12  1  0.54216500  0.25209900  0.15203800  1
  P  P13  1  0.54216500  0.75209900  0.34796200  1
  P  P14  1  0.45783500  0.24790100  0.65203800  1
  P  P15  1  0.45783500  0.74790100  0.84796200  1
  P  P16  1  0.25000000  0.19310700  0.45322800  1
  P  P17  1  0.25000000  0.69310700  0.04677200  1
  P  P18  1  0.04216500  0.24790100  0.65203800  1
  P  P19  1  0.04216500  0.74790100  0.84796200  1
  O  O20  1  0.97043500  0.64775500  0.75810600  1
  O  O21  1  0.97043500  0.14775500  0.74189400  1
  O  O22  1  0.93873900  0.88612000  0.88224400  1
  O  O23  1  0.93873900  0.38612000  0.61775600  1
  O  O24  1  0.92218300  0.34629200  0.03682100  1
  O  O25  1  0.92218300  0.84629200  0.46317900  1
  O  O26  1  0.75000000  0.69848600  0.31224000  1
  O  O27  1  0.75000000  0.40815300  0.85596500  1
  O  O28  1  0.75000000  0.90815300  0.64403500  1
  O  O29  1  0.75000000  0.14087300  0.93824700  1
  O  O30  1  0.75000000  0.19848600  0.18776000  1
  O  O31  1  0.75000000  0.64087300  0.56175300  1
  O  O32  1  0.57781700  0.34629200  0.03682100  1
  O  O33  1  0.57781700  0.84629200  0.46317900  1
  O  O34  1  0.56126100  0.88612000  0.88224400  1
  O  O35  1  0.56126100  0.38612000  0.61775600  1
  O  O36  1  0.52956500  0.64775500  0.75810600  1
  O  O37  1  0.52956500  0.14775500  0.74189400  1
  O  O38  1  0.47043500  0.85224500  0.25810600  1
  O  O39  1  0.47043500  0.35224500  0.24189400  1
  O  O40  1  0.43873900  0.11388000  0.11775600  1
  O  O41  1  0.43873900  0.61388000  0.38224400  1
  O  O42  1  0.42218300  0.15370800  0.53682100  1
  O  O43  1  0.42218300  0.65370800  0.96317900  1
  O  O44  1  0.25000000  0.85912700  0.06175300  1
  O  O45  1  0.25000000  0.59184700  0.14403500  1
  O  O46  1  0.25000000  0.35912700  0.43824700  1
  O  O47  1  0.25000000  0.09184700  0.35596500  1
  O  O48  1  0.25000000  0.30151400  0.68776000  1
  O  O49  1  0.25000000  0.80151400  0.81224000  1
  O  O50  1  0.07781700  0.15370800  0.53682100  1
  O  O51  1  0.07781700  0.65370800  0.96317900  1
  O  O52  1  0.06126100  0.61388000  0.38224400  1
  O  O53  1  0.06126100  0.11388000  0.11775600  1
  O  O54  1  0.02956500  0.35224500  0.24189400  1
  O  O55  1  0.02956500  0.85224500  0.25810600  1
