# generated using pymatgen
data_Li2Cr(SO4)2
_symmetry_space_group_name_H-M   'P 1'
_cell_length_a   9.42321100
_cell_length_b   9.44830900
_cell_length_c   13.98071000
_cell_angle_alpha   90.00000000
_cell_angle_beta   90.00000000
_cell_angle_gamma   90.00000000
_symmetry_Int_Tables_number   1
_chemical_formula_structural   Li2Cr(SO4)2
_chemical_formula_sum   'Li16 Cr8 S16 O64'
_cell_volume   1244.75027574
_cell_formula_units_Z   8
loop_
 _symmetry_equiv_pos_site_id
 _symmetry_equiv_pos_as_xyz
  1  'x, y, z'
loop_
 _atom_site_type_symbol
 _atom_site_label
 _atom_site_symmetry_multiplicity
 _atom_site_fract_x
 _atom_site_fract_y
 _atom_site_fract_z
 _atom_site_occupancy
  Li  Li0  1  0.03291900  0.21971100  0.37463900  1
  Li  Li1  1  0.03291900  0.28028900  0.87463900  1
  Li  Li2  1  0.22278600  0.95402000  0.37297700  1
  Li  Li3  1  0.22278600  0.54598000  0.87297700  1
  Li  Li4  1  0.27721400  0.04598000  0.87297700  1
  Li  Li5  1  0.27721400  0.45402000  0.37297700  1
  Li  Li6  1  0.46708100  0.71971100  0.37463900  1
  Li  Li7  1  0.46708100  0.78028900  0.87463900  1
  Li  Li8  1  0.53291900  0.21971100  0.12536100  1
  Li  Li9  1  0.53291900  0.28028900  0.62536100  1
  Li  Li10  1  0.72278600  0.54598000  0.62702300  1
  Li  Li11  1  0.72278600  0.95402000  0.12702300  1
  Li  Li12  1  0.77721400  0.45402000  0.12702300  1
  Li  Li13  1  0.77721400  0.04598000  0.62702300  1
  Li  Li14  1  0.96708100  0.78028900  0.62536100  1
  Li  Li15  1  0.96708100  0.71971100  0.12536100  1
  Cr  Cr16  1  0.14031500  0.10321000  0.12477300  1
  Cr  Cr17  1  0.14031500  0.39679000  0.62477300  1
  Cr  Cr18  1  0.35968500  0.60321000  0.12477300  1
  Cr  Cr19  1  0.35968500  0.89679000  0.62477300  1
  Cr  Cr20  1  0.64031500  0.10321000  0.37522700  1
  Cr  Cr21  1  0.64031500  0.39679000  0.87522700  1
  Cr  Cr22  1  0.85968500  0.60321000  0.37522700  1
  Cr  Cr23  1  0.85968500  0.89679000  0.87522700  1
  S  S24  1  0.07033500  0.06773700  0.73038300  1
  S  S25  1  0.07033500  0.43226300  0.23038300  1
  S  S26  1  0.16452900  0.69058200  0.49012700  1
  S  S27  1  0.16452900  0.80941800  0.99012700  1
  S  S28  1  0.33547100  0.19058200  0.49012700  1
  S  S29  1  0.33547100  0.30941800  0.99012700  1
  S  S30  1  0.42966500  0.93226300  0.23038300  1
  S  S31  1  0.42966500  0.56773700  0.73038300  1
  S  S32  1  0.57033500  0.43226300  0.26961700  1
  S  S33  1  0.57033500  0.06773700  0.76961700  1
  S  S34  1  0.66452900  0.69058200  0.00987300  1
  S  S35  1  0.66452900  0.80941800  0.50987300  1
  S  S36  1  0.83547100  0.19058200  0.00987300  1
  S  S37  1  0.83547100  0.30941800  0.50987300  1
  S  S38  1  0.92966500  0.56773700  0.76961700  1
  S  S39  1  0.92966500  0.93226300  0.26961700  1
  O  O40  1  0.00802400  0.70302400  0.47917500  1
  O  O41  1  0.00802400  0.79697600  0.97917500  1
  O  O42  1  0.01853900  0.99935600  0.34401800  1
  O  O43  1  0.01853900  0.50064400  0.84401800  1
  O  O44  1  0.01811200  0.46750700  0.32997700  1
  O  O45  1  0.01811200  0.03249300  0.82997700  1
  O  O46  1  0.06672100  0.22527900  0.72635600  1
  O  O47  1  0.06672100  0.27472100  0.22635600  1
  O  O48  1  0.19480600  0.73061400  0.08137500  1
  O  O49  1  0.19480600  0.76938600  0.58137500  1
  O  O50  1  0.20893400  0.95995300  0.99964600  1
  O  O51  1  0.20893400  0.54004700  0.49964600  1
  O  O52  1  0.21940800  0.01542200  0.72586100  1
  O  O53  1  0.21940800  0.48457800  0.22586100  1
  O  O54  1  0.24291200  0.75177400  0.40758600  1
  O  O55  1  0.24291200  0.74822600  0.90758600  1
  O  O56  1  0.25708800  0.25177400  0.40758600  1
  O  O57  1  0.25708800  0.24822600  0.90758600  1
  O  O58  1  0.28059200  0.98457800  0.22586100  1
  O  O59  1  0.28059200  0.51542200  0.72586100  1
  O  O60  1  0.29106600  0.04004700  0.49964600  1
  O  O61  1  0.29106600  0.45995300  0.99964600  1
  O  O62  1  0.30519400  0.23061400  0.08137500  1
  O  O63  1  0.30519400  0.26938600  0.58137500  1
  O  O64  1  0.43327900  0.77472100  0.22635600  1
  O  O65  1  0.43327900  0.72527900  0.72635600  1
  O  O66  1  0.48188800  0.53249300  0.82997700  1
  O  O67  1  0.48188800  0.96750700  0.32997700  1
  O  O68  1  0.48146100  0.49935600  0.34401800  1
  O  O69  1  0.48146100  0.00064400  0.84401800  1
  O  O70  1  0.49197600  0.20302400  0.47917500  1
  O  O71  1  0.49197600  0.29697600  0.97917500  1
  O  O72  1  0.50802400  0.70302400  0.02082500  1
  O  O73  1  0.50802400  0.79697600  0.52082500  1
  O  O74  1  0.51854000  0.50064400  0.65598200  1
  O  O75  1  0.51854000  0.99935600  0.15598200  1
  O  O76  1  0.51811200  0.46750700  0.17002300  1
  O  O77  1  0.51811200  0.03249300  0.67002300  1
  O  O78  1  0.56672100  0.27472100  0.27364400  1
  O  O79  1  0.56672100  0.22527900  0.77364400  1
  O  O80  1  0.69480600  0.73061400  0.41862500  1
  O  O81  1  0.69480600  0.76938600  0.91862500  1
  O  O82  1  0.70893400  0.54004700  0.00035400  1
  O  O83  1  0.70893400  0.95995300  0.50035400  1
  O  O84  1  0.71940800  0.48457800  0.27413900  1
  O  O85  1  0.71940800  0.01542200  0.77413900  1
  O  O86  1  0.74291200  0.75177400  0.09241400  1
  O  O87  1  0.74291200  0.74822600  0.59241400  1
  O  O88  1  0.75708800  0.25177400  0.09241400  1
  O  O89  1  0.75708800  0.24822600  0.59241400  1
  O  O90  1  0.78059200  0.51542200  0.77413900  1
  O  O91  1  0.78059200  0.98457800  0.27413900  1
  O  O92  1  0.79106600  0.45995300  0.50035400  1
  O  O93  1  0.79106600  0.04004700  0.00035400  1
  O  O94  1  0.80519400  0.23061400  0.41862500  1
  O  O95  1  0.80519400  0.26938600  0.91862500  1
  O  O96  1  0.93327900  0.72527900  0.77364400  1
  O  O97  1  0.93327900  0.77472100  0.27364400  1
  O  O98  1  0.98188800  0.53249300  0.67002300  1
  O  O99  1  0.98188800  0.96750700  0.17002300  1
  O  O100  1  0.98146000  0.00064400  0.65598200  1
  O  O101  1  0.98146000  0.49935600  0.15598200  1
  O  O102  1  0.99197600  0.20302400  0.02082500  1
  O  O103  1  0.99197600  0.29697600  0.52082500  1
