# generated using pymatgen
data_LiNiPO4
_symmetry_space_group_name_H-M   'P 1'
_cell_length_a   5.42462900
_cell_length_b   8.22762400
_cell_length_c   18.54606800
_cell_angle_alpha   90.00000000
_cell_angle_beta   90.00000000
_cell_angle_gamma   90.00000000
_symmetry_Int_Tables_number   1
_chemical_formula_structural   LiNiPO4
_chemical_formula_sum   'Li12 Ni12 P12 O48'
_cell_volume   827.74454152
_cell_formula_units_Z   12
loop_
 _symmetry_equiv_pos_site_id
 _symmetry_equiv_pos_as_xyz
  1  'x, y, z'
loop_
 _atom_site_type_symbol
 _atom_site_label
 _atom_site_symmetry_multiplicity
 _atom_site_fract_x
 _atom_site_fract_y
 _atom_site_fract_z
 _atom_site_occupancy
  Li  Li0  1  0.74959400  0.92371200  0.08225200  1
  Li  Li1  1  0.22069600  0.42141400  0.08421900  1
  Li  Li2  1  0.74077400  0.58155200  0.24872900  1
  Li  Li3  1  0.24077400  0.08155200  0.25127100  1
  Li  Li4  1  0.72069600  0.92141400  0.41578100  1
  Li  Li5  1  0.24959400  0.42371200  0.41774800  1
  Li  Li6  1  0.74959400  0.57628800  0.58225200  1
  Li  Li7  1  0.22069600  0.07858600  0.58421900  1
  Li  Li8  1  0.74077400  0.91844800  0.74872900  1
  Li  Li9  1  0.24077400  0.41844800  0.75127100  1
  Li  Li10  1  0.72069600  0.57858600  0.91578100  1
  Li  Li11  1  0.24959400  0.07628800  0.91774800  1
  Ni  Ni12  1  0.73382400  0.25118400  0.99969600  1
  Ni  Ni13  1  0.23575800  0.75146000  0.16683200  1
  Ni  Ni14  1  0.73763500  0.24996900  0.16653500  1
  Ni  Ni15  1  0.23763500  0.74996900  0.33346500  1
  Ni  Ni16  1  0.73575800  0.25146000  0.33316800  1
  Ni  Ni17  1  0.23382400  0.75118400  0.50030400  1
  Ni  Ni18  1  0.73382400  0.24881600  0.49969600  1
  Ni  Ni19  1  0.23575800  0.74854000  0.66683200  1
  Ni  Ni20  1  0.73763500  0.25003100  0.66653500  1
  Ni  Ni21  1  0.23763500  0.75003100  0.83346500  1
  Ni  Ni22  1  0.73575800  0.24854000  0.83316800  1
  Ni  Ni23  1  0.23382400  0.74881600  0.00030400  1
  P  P24  1  0.73175000  0.59998900  0.08285700  1
  P  P25  1  0.23798800  0.09957300  0.08388800  1
  P  P26  1  0.73742400  0.90149300  0.24949600  1
  P  P27  1  0.23742400  0.40149300  0.25050400  1
  P  P28  1  0.73798800  0.59957300  0.41611200  1
  P  P29  1  0.23175000  0.09998900  0.41714300  1
  P  P30  1  0.73175000  0.90001100  0.58285700  1
  P  P31  1  0.23798800  0.40042700  0.58388800  1
  P  P32  1  0.73742400  0.59850700  0.74949600  1
  P  P33  1  0.23742400  0.09850700  0.75050400  1
  P  P34  1  0.73798800  0.90042700  0.91611200  1
  P  P35  1  0.23175000  0.40001100  0.91714300  1
  O  O36  1  0.73231900  0.49641400  0.01436700  1
  O  O37  1  0.23631500  0.99374900  0.01606800  1
  O  O38  1  0.46749400  0.21820600  0.08332900  1
  O  O39  1  0.00578400  0.21699700  0.08326200  1
  O  O40  1  0.96240900  0.71861000  0.08298400  1
  O  O41  1  0.50078700  0.71732400  0.08347300  1
  O  O42  1  0.73637300  0.49480400  0.15087100  1
  O  O43  1  0.23759000  0.99682900  0.15259900  1
  O  O44  1  0.73841900  0.00498900  0.18101200  1
  O  O45  1  0.23485000  0.50628200  0.18240100  1
  O  O46  1  0.46857200  0.28360200  0.25000200  1
  O  O47  1  0.00748600  0.28272700  0.25049000  1
  O  O48  1  0.50748600  0.78272700  0.24951000  1
  O  O49  1  0.96857200  0.78360200  0.24999800  1
  O  O50  1  0.73485000  0.00628200  0.31759900  1
  O  O51  1  0.23841900  0.50498900  0.31898800  1
  O  O52  1  0.73759000  0.49682900  0.34740100  1
  O  O53  1  0.23637300  0.99480400  0.34912900  1
  O  O54  1  0.00078700  0.21732400  0.41652700  1
  O  O55  1  0.46240900  0.21861000  0.41701600  1
  O  O56  1  0.50578400  0.71699700  0.41673800  1
  O  O57  1  0.96749400  0.71820600  0.41667100  1
  O  O58  1  0.73631500  0.49374900  0.48393200  1
  O  O59  1  0.23231900  0.99641400  0.48563300  1
  O  O60  1  0.73231900  0.00358600  0.51436700  1
  O  O61  1  0.23631500  0.50625100  0.51606800  1
  O  O62  1  0.46749400  0.28179400  0.58332900  1
  O  O63  1  0.00578400  0.28300300  0.58326200  1
  O  O64  1  0.96240900  0.78139000  0.58298400  1
  O  O65  1  0.50078700  0.78267600  0.58347300  1
  O  O66  1  0.73637300  0.00519600  0.65087100  1
  O  O67  1  0.23759000  0.50317100  0.65259900  1
  O  O68  1  0.73841900  0.49501100  0.68101200  1
  O  O69  1  0.23485000  0.99371800  0.68240100  1
  O  O70  1  0.46857200  0.21639800  0.75000200  1
  O  O71  1  0.00748600  0.21727300  0.75049000  1
  O  O72  1  0.50748600  0.71727300  0.74951000  1
  O  O73  1  0.96857200  0.71639800  0.74999800  1
  O  O74  1  0.73485000  0.49371800  0.81759900  1
  O  O75  1  0.23841900  0.99501100  0.81898800  1
  O  O76  1  0.73759000  0.00317100  0.84740100  1
  O  O77  1  0.23637300  0.50519600  0.84912900  1
  O  O78  1  0.00078700  0.28267600  0.91652700  1
  O  O79  1  0.46240900  0.28139000  0.91701600  1
  O  O80  1  0.50578400  0.78300300  0.91673800  1
  O  O81  1  0.96749400  0.78179400  0.91667100  1
  O  O82  1  0.73631500  0.00625100  0.98393200  1
  O  O83  1  0.23231900  0.50358600  0.98563300  1
