# generated using pymatgen
data_Li2Si3Ni3O10
_symmetry_space_group_name_H-M   'P 1'
_cell_length_a   8.18177174
_cell_length_b   8.18177174
_cell_length_c   10.22695143
_cell_angle_alpha   86.90636598
_cell_angle_beta   86.90636598
_cell_angle_gamma   33.92179227
_symmetry_Int_Tables_number   1
_chemical_formula_structural   Li2Si3Ni3O10
_chemical_formula_sum   'Li4 Si6 Ni6 O20'
_cell_volume   381.44332549
_cell_formula_units_Z   2
loop_
 _symmetry_equiv_pos_site_id
 _symmetry_equiv_pos_as_xyz
  1  'x, y, z'
loop_
 _atom_site_type_symbol
 _atom_site_label
 _atom_site_symmetry_multiplicity
 _atom_site_fract_x
 _atom_site_fract_y
 _atom_site_fract_z
 _atom_site_occupancy
  Li  Li0  1  0.26551000  0.84435800  0.02728100  1
  Li  Li1  1  0.84435800  0.26551000  0.52728100  1
  Li  Li2  1  0.15564200  0.73449000  0.47271900  1
  Li  Li3  1  0.73449000  0.15564200  0.97271900  1
  Si  Si4  1  0.84360800  0.46927300  0.09346700  1
  Si  Si5  1  0.46927300  0.84360800  0.59346700  1
  Si  Si6  1  0.53072700  0.15639200  0.40653300  1
  Si  Si7  1  0.15639200  0.53072700  0.90653300  1
  Si  Si8  1  0.81092500  0.18907500  0.25000000  1
  Si  Si9  1  0.18907500  0.81092500  0.75000000  1
  Ni  Ni10  1  0.38035500  0.93482500  0.28470400  1
  Ni  Ni11  1  0.93482500  0.38035500  0.78470400  1
  Ni  Ni12  1  0.50000000  0.00000000  0.00000000  1
  Ni  Ni13  1  0.00000000  0.50000000  0.50000000  1
  Ni  Ni14  1  0.06517500  0.61964500  0.21529600  1
  Ni  Ni15  1  0.61964500  0.06517500  0.71529600  1
  O  O16  1  0.04410700  0.05261400  0.35752600  1
  O  O17  1  0.64405000  0.48595500  0.16990500  1
  O  O18  1  0.05261400  0.04410700  0.85752600  1
  O  O19  1  0.48595500  0.64405000  0.66990500  1
  O  O20  1  0.18260800  0.12781000  0.10237600  1
  O  O21  1  0.61266500  0.70063400  0.44844000  1
  O  O22  1  0.12781000  0.18260800  0.60237600  1
  O  O23  1  0.70063400  0.61266500  0.94844000  1
  O  O24  1  0.75154200  0.71443100  0.16681800  1
  O  O25  1  0.71443100  0.75154200  0.66681800  1
  O  O26  1  0.28556900  0.24845800  0.33318200  1
  O  O27  1  0.24845800  0.28556900  0.83318200  1
  O  O28  1  0.29936600  0.38733500  0.05156000  1
  O  O29  1  0.87219000  0.81739200  0.39762400  1
  O  O30  1  0.38733500  0.29936600  0.55156000  1
  O  O31  1  0.81739200  0.87219000  0.89762400  1
  O  O32  1  0.51404500  0.35595000  0.33009500  1
  O  O33  1  0.94738600  0.95589300  0.14247400  1
  O  O34  1  0.35595000  0.51404500  0.83009500  1
  O  O35  1  0.95589300  0.94738600  0.64247400  1
