# generated using pymatgen
data_Li8VO5F
_symmetry_space_group_name_H-M   'P 1'
_cell_length_a   5.64671197
_cell_length_b   5.64671197
_cell_length_c   10.92071300
_cell_angle_alpha   90.00000000
_cell_angle_beta   90.00000000
_cell_angle_gamma   119.99999960
_symmetry_Int_Tables_number   1
_chemical_formula_structural   Li8VO5F
_chemical_formula_sum   'Li16 V2 O10 F2'
_cell_volume   301.55941896
_cell_formula_units_Z   2
loop_
 _symmetry_equiv_pos_site_id
 _symmetry_equiv_pos_as_xyz
  1  'x, y, z'
loop_
 _atom_site_type_symbol
 _atom_site_label
 _atom_site_symmetry_multiplicity
 _atom_site_fract_x
 _atom_site_fract_y
 _atom_site_fract_z
 _atom_site_occupancy
  Li  Li0  1  0.97591100  0.68491200  0.77207300  1
  Li  Li1  1  0.01976800  0.63000900  0.12114000  1
  Li  Li2  1  0.98023200  0.36999100  0.62114000  1
  Li  Li3  1  0.02408900  0.31508800  0.27207300  1
  Li  Li4  1  0.33333300  0.66666700  0.41383100  1
  Li  Li5  1  0.33333300  0.66666700  0.92411900  1
  Li  Li6  1  0.31508800  0.29099900  0.77207300  1
  Li  Li7  1  0.36999100  0.38976000  0.12114000  1
  Li  Li8  1  0.63000900  0.61024000  0.62114000  1
  Li  Li9  1  0.29099900  0.97591100  0.27207300  1
  Li  Li10  1  0.68491200  0.70900100  0.27207300  1
  Li  Li11  1  0.38976000  0.01976800  0.62114000  1
  Li  Li12  1  0.66666700  0.33333300  0.91383100  1
  Li  Li13  1  0.66666700  0.33333300  0.42411900  1
  Li  Li14  1  0.61024000  0.98023200  0.12114000  1
  Li  Li15  1  0.70900100  0.02408900  0.77207300  1
  V  V16  1  0.00000000  0.00000000  0.98786600  1
  V  V17  1  0.00000000  0.00000000  0.48786600  1
  O  O18  1  0.00192100  0.67350100  0.94775200  1
  O  O19  1  0.99807900  0.32649900  0.44775200  1
  O  O20  1  0.33333300  0.66666700  0.21225700  1
  O  O21  1  0.00000000  0.00000000  0.67534300  1
  O  O22  1  0.00000000  0.00000000  0.17534300  1
  O  O23  1  0.32649900  0.32842000  0.94775200  1
  O  O24  1  0.32842000  0.00192100  0.44775200  1
  O  O25  1  0.67350100  0.67158000  0.44775200  1
  O  O26  1  0.66666700  0.33333300  0.71225700  1
  O  O27  1  0.67158000  0.99807900  0.94775200  1
  F  F28  1  0.33333300  0.66666700  0.70933100  1
  F  F29  1  0.66666700  0.33333300  0.20933100  1
