# generated using pymatgen
data_Li4Ti2Mn3Co3O16
_symmetry_space_group_name_H-M   'P 1'
_cell_length_a   5.86541422
_cell_length_b   5.92019949
_cell_length_c   9.49435023
_cell_angle_alpha   88.14984634
_cell_angle_beta   89.31315398
_cell_angle_gamma   59.94581535
_symmetry_Int_Tables_number   1
_chemical_formula_structural   Li4Ti2Mn3Co3O16
_chemical_formula_sum   'Li4 Ti2 Mn3 Co3 O16'
_cell_volume   285.20818590
_cell_formula_units_Z   1
loop_
 _symmetry_equiv_pos_site_id
 _symmetry_equiv_pos_as_xyz
  1  'x, y, z'
loop_
 _atom_site_type_symbol
 _atom_site_label
 _atom_site_symmetry_multiplicity
 _atom_site_fract_x
 _atom_site_fract_y
 _atom_site_fract_z
 _atom_site_occupancy
  Li  Li0  1  0.66196000  0.67535100  0.89814000  1
  Li  Li1  1  0.99765400  0.00327000  0.99423700  1
  Li  Li2  1  0.00928100  0.99675900  0.49275000  1
  Li  Li3  1  0.33690900  0.33397000  0.39541900  1
  Ti  Ti4  1  0.67514600  0.66313600  0.49669900  1
  Ti  Ti5  1  0.32388200  0.34676800  0.99819600  1
  Mn  Mn6  1  0.82539900  0.82860200  0.21561200  1
  Mn  Mn7  1  0.16944000  0.65530000  0.71609400  1
  Mn  Mn8  1  0.66189100  0.17219100  0.71231500  1
  Co  Co9  1  0.33899600  0.82583900  0.21739300  1
  Co  Co10  1  0.82644100  0.34115300  0.21458300  1
  Co  Co11  1  0.18344300  0.15904500  0.71918600  1
  O  O12  1  0.34194200  0.82001600  0.59652600  1
  O  O13  1  0.52404100  0.51843100  0.33967200  1
  O  O14  1  0.66967200  0.68058000  0.10634600  1
  O  O15  1  0.99093400  0.99037600  0.30491000  1
  O  O16  1  0.99722100  0.98430100  0.80502400  1
  O  O17  1  0.84219700  0.32693400  0.59329600  1
  O  O18  1  0.53010200  0.95808000  0.34145000  1
  O  O19  1  0.96215100  0.52649900  0.33850500  1
  O  O20  1  0.15949600  0.17225700  0.09425800  1
  O  O21  1  0.85269700  0.80878300  0.59208300  1
  O  O22  1  0.03503300  0.48898200  0.83839800  1
  O  O23  1  0.47626000  0.04456700  0.83954400  1
  O  O24  1  0.33722700  0.34641300  0.60816400  1
  O  O25  1  0.15348600  0.66701700  0.09820800  1
  O  O26  1  0.45834000  0.50222000  0.84642600  1
  O  O27  1  0.65845900  0.16346500  0.09440600  1
