# generated using pymatgen
data_Li2Co(SO4)2
_symmetry_space_group_name_H-M   'P 1'
_cell_length_a   9.18642800
_cell_length_b   9.30261800
_cell_length_c   13.80134700
_cell_angle_alpha   90.00000000
_cell_angle_beta   90.00000000
_cell_angle_gamma   90.00000000
_symmetry_Int_Tables_number   1
_chemical_formula_structural   Li2Co(SO4)2
_chemical_formula_sum   'Li16 Co8 S16 O64'
_cell_volume   1179.43317216
_cell_formula_units_Z   8
loop_
 _symmetry_equiv_pos_site_id
 _symmetry_equiv_pos_as_xyz
  1  'x, y, z'
loop_
 _atom_site_type_symbol
 _atom_site_label
 _atom_site_symmetry_multiplicity
 _atom_site_fract_x
 _atom_site_fract_y
 _atom_site_fract_z
 _atom_site_occupancy
  Li  Li0  1  0.77989100  0.96608100  0.37374700  1
  Li  Li1  1  0.72010900  0.96608100  0.87374700  1
  Li  Li2  1  0.04464400  0.77505800  0.37248400  1
  Li  Li3  1  0.45535600  0.77505800  0.87248400  1
  Li  Li4  1  0.95535600  0.72494200  0.87248400  1
  Li  Li5  1  0.54464400  0.72494200  0.37248400  1
  Li  Li6  1  0.27989100  0.53391900  0.37374700  1
  Li  Li7  1  0.22010900  0.53391900  0.87374700  1
  Li  Li8  1  0.77989100  0.46608100  0.12625300  1
  Li  Li9  1  0.72010900  0.46608100  0.62625300  1
  Li  Li10  1  0.45535600  0.27505800  0.62751600  1
  Li  Li11  1  0.04464400  0.27505800  0.12751600  1
  Li  Li12  1  0.54464400  0.22494200  0.12751600  1
  Li  Li13  1  0.95535600  0.22494200  0.62751600  1
  Li  Li14  1  0.22010900  0.03391900  0.62625300  1
  Li  Li15  1  0.27989100  0.03391900  0.12625300  1
  Co  Co16  1  0.89723200  0.86113800  0.12295100  1
  Co  Co17  1  0.60276800  0.86113800  0.62295100  1
  Co  Co18  1  0.39723200  0.63886200  0.12295100  1
  Co  Co19  1  0.10276800  0.63886200  0.62295100  1
  Co  Co20  1  0.89723200  0.36113800  0.37704900  1
  Co  Co21  1  0.60276800  0.36113800  0.87704900  1
  Co  Co22  1  0.39723200  0.13886200  0.37704900  1
  Co  Co23  1  0.10276800  0.13886200  0.87704900  1
  S  S24  1  0.93058400  0.92530900  0.72708500  1
  S  S25  1  0.56941600  0.92530900  0.22708500  1
  S  S26  1  0.31307600  0.83931400  0.49088900  1
  S  S27  1  0.18692400  0.83931400  0.99088900  1
  S  S28  1  0.81307600  0.66068600  0.49088900  1
  S  S29  1  0.68692400  0.66068600  0.99088900  1
  S  S30  1  0.06941600  0.57469100  0.22708500  1
  S  S31  1  0.43058400  0.57469100  0.72708500  1
  S  S32  1  0.56941600  0.42530900  0.27291500  1
  S  S33  1  0.93058400  0.42530900  0.77291500  1
  S  S34  1  0.31307600  0.33931400  0.00911100  1
  S  S35  1  0.18692400  0.33931400  0.50911100  1
  S  S36  1  0.81307600  0.16068600  0.00911100  1
  S  S37  1  0.68692400  0.16068600  0.50911100  1
  S  S38  1  0.43058400  0.07469100  0.77291500  1
  S  S39  1  0.06941600  0.07469100  0.27291500  1
  O  O40  1  0.30051800  0.99785700  0.47730600  1
  O  O41  1  0.19948200  0.99785700  0.97730600  1
  O  O42  1  0.00236600  0.98246200  0.34745100  1
  O  O43  1  0.49763400  0.98246200  0.84745100  1
  O  O44  1  0.53655000  0.97592800  0.32877400  1
  O  O45  1  0.96345000  0.97592800  0.82877400  1
  O  O46  1  0.76803300  0.92680000  0.72235700  1
  O  O47  1  0.73196700  0.92680000  0.22235700  1
  O  O48  1  0.27051500  0.81131000  0.08180000  1
  O  O49  1  0.22948500  0.81131000  0.58180000  1
  O  O50  1  0.03186700  0.79454100  0.00419900  1
  O  O51  1  0.46813300  0.79454100  0.50419900  1
  O  O52  1  0.98762900  0.77506000  0.72183800  1
  O  O53  1  0.51237100  0.77506000  0.22183800  1
  O  O54  1  0.25684100  0.75813200  0.40622500  1
  O  O55  1  0.24315900  0.75813200  0.90622500  1
  O  O56  1  0.75684100  0.74186800  0.40622500  1
  O  O57  1  0.74315900  0.74186800  0.90622500  1
  O  O58  1  0.01237100  0.72494000  0.22183800  1
  O  O59  1  0.48762900  0.72494000  0.72183800  1
  O  O60  1  0.96813300  0.70545900  0.50419900  1
  O  O61  1  0.53186700  0.70545900  0.00419900  1
  O  O62  1  0.77051500  0.68869000  0.08180000  1
  O  O63  1  0.72948500  0.68869000  0.58180000  1
  O  O64  1  0.23196700  0.57320000  0.22235700  1
  O  O65  1  0.26803300  0.57320000  0.72235700  1
  O  O66  1  0.46345000  0.52407200  0.82877400  1
  O  O67  1  0.03655000  0.52407200  0.32877400  1
  O  O68  1  0.50236600  0.51753800  0.34745100  1
  O  O69  1  0.99763400  0.51753800  0.84745100  1
  O  O70  1  0.80051800  0.50214300  0.47730600  1
  O  O71  1  0.69948200  0.50214300  0.97730600  1
  O  O72  1  0.30051800  0.49785700  0.02269400  1
  O  O73  1  0.19948200  0.49785700  0.52269400  1
  O  O74  1  0.49763400  0.48246200  0.65254900  1
  O  O75  1  0.00236600  0.48246200  0.15254900  1
  O  O76  1  0.53655000  0.47592800  0.17122600  1
  O  O77  1  0.96345000  0.47592800  0.67122600  1
  O  O78  1  0.73196700  0.42680000  0.27764300  1
  O  O79  1  0.76803300  0.42680000  0.77764300  1
  O  O80  1  0.27051500  0.31131000  0.41820000  1
  O  O81  1  0.22948500  0.31131000  0.91820000  1
  O  O82  1  0.46813300  0.29454100  0.99580100  1
  O  O83  1  0.03186700  0.29454100  0.49580100  1
  O  O84  1  0.51237100  0.27506000  0.27816200  1
  O  O85  1  0.98762900  0.27506000  0.77816200  1
  O  O86  1  0.25684100  0.25813200  0.09377500  1
  O  O87  1  0.24315900  0.25813200  0.59377500  1
  O  O88  1  0.75684100  0.24186800  0.09377500  1
  O  O89  1  0.74315900  0.24186800  0.59377500  1
  O  O90  1  0.48762900  0.22494000  0.77816200  1
  O  O91  1  0.01237100  0.22494000  0.27816200  1
  O  O92  1  0.53186700  0.20545900  0.49580100  1
  O  O93  1  0.96813300  0.20545900  0.99580100  1
  O  O94  1  0.77051500  0.18869000  0.41820000  1
  O  O95  1  0.72948500  0.18869000  0.91820000  1
  O  O96  1  0.26803300  0.07320000  0.77764300  1
  O  O97  1  0.23196700  0.07320000  0.27764300  1
  O  O98  1  0.46345000  0.02407200  0.67122600  1
  O  O99  1  0.03655000  0.02407200  0.17122600  1
  O  O100  1  0.99763400  0.01753800  0.65254900  1
  O  O101  1  0.50236600  0.01753800  0.15254900  1
  O  O102  1  0.80051800  0.00214300  0.02269400  1
  O  O103  1  0.69948200  0.00214300  0.52269400  1
