# generated using pymatgen
data_Li4V5O12
_symmetry_space_group_name_H-M   'P 1'
_cell_length_a   9.19360500
_cell_length_b   9.01171100
_cell_length_c   15.56125419
_cell_angle_alpha   55.53122084
_cell_angle_beta   90.00000000
_cell_angle_gamma   90.00000000
_symmetry_Int_Tables_number   1
_chemical_formula_structural   Li4V5O12
_chemical_formula_sum   'Li16 V20 O48'
_cell_volume   1062.90379630
_cell_formula_units_Z   4
loop_
 _symmetry_equiv_pos_site_id
 _symmetry_equiv_pos_as_xyz
  1  'x, y, z'
loop_
 _atom_site_type_symbol
 _atom_site_label
 _atom_site_symmetry_multiplicity
 _atom_site_fract_x
 _atom_site_fract_y
 _atom_site_fract_z
 _atom_site_occupancy
  Li  Li0  1  0.91256700  0.13085100  0.79754500  1
  Li  Li1  1  0.59521100  0.75583100  0.22600300  1
  Li  Li2  1  0.32540400  0.34705700  0.53023300  1
  Li  Li3  1  0.23053100  0.50680900  0.30935200  1
  Li  Li4  1  0.73053100  0.49319100  0.19064800  1
  Li  Li5  1  0.82540400  0.65294300  0.96976700  1
  Li  Li6  1  0.09521100  0.24416900  0.27399700  1
  Li  Li7  1  0.41256700  0.86914900  0.70245500  1
  Li  Li8  1  0.58743300  0.13085100  0.29754500  1
  Li  Li9  1  0.90478900  0.75583100  0.72600300  1
  Li  Li10  1  0.17459600  0.34705700  0.03023300  1
  Li  Li11  1  0.26946900  0.50680900  0.80935200  1
  Li  Li12  1  0.76946900  0.49319100  0.69064800  1
  Li  Li13  1  0.67459600  0.65294300  0.46976700  1
  Li  Li14  1  0.40478900  0.24416900  0.77399700  1
  Li  Li15  1  0.08743300  0.86914900  0.20245500  1
  V  V16  1  0.03304200  0.63610400  0.11872500  1
  V  V17  1  0.53304200  0.36389600  0.38127500  1
  V  V18  1  0.46695800  0.63610400  0.61872500  1
  V  V19  1  0.96695800  0.36389600  0.88127500  1
  V  V20  1  0.74939800  0.95419200  0.00605200  1
  V  V21  1  0.61821400  0.23419900  0.65009600  1
  V  V22  1  0.88477700  0.53619700  0.35799900  1
  V  V23  1  0.47211500  0.85794400  0.89260600  1
  V  V24  1  0.97211500  0.14205600  0.60739400  1
  V  V25  1  0.38477700  0.46380300  0.14200100  1
  V  V26  1  0.11821400  0.76580100  0.84990400  1
  V  V27  1  0.24939800  0.04580800  0.49394800  1
  V  V28  1  0.75060200  0.95419200  0.50605200  1
  V  V29  1  0.88178600  0.23419900  0.15009600  1
  V  V30  1  0.61522300  0.53619700  0.85799900  1
  V  V31  1  0.02788500  0.85794400  0.39260600  1
  V  V32  1  0.52788500  0.14205600  0.10739400  1
  V  V33  1  0.11522300  0.46380300  0.64200100  1
  V  V34  1  0.38178600  0.76580100  0.34990400  1
  V  V35  1  0.25060200  0.04580800  0.99394800  1
  O  O36  1  0.42478600  0.61525400  0.31558800  1
  O  O37  1  0.13517500  0.31866900  0.60210400  1
  O  O38  1  0.32548100  0.03241500  0.89481600  1
  O  O39  1  0.12096600  0.88334100  0.06825800  1
  O  O40  1  0.62561900  0.98260400  0.91388000  1
  O  O41  1  0.80902800  0.21724600  0.66227300  1
  O  O42  1  0.56344900  0.33678300  0.52279900  1
  O  O43  1  0.71722300  0.53131000  0.30487600  1
  O  O44  1  0.01882900  0.61494500  0.26195200  1
  O  O45  1  0.81856700  0.73234300  0.06506800  1
  O  O46  1  0.50513300  0.04489800  0.73059900  1
  O  O47  1  0.93283100  0.32165600  0.46036900  1
  O  O48  1  0.00513300  0.95510200  0.76940100  1
  O  O49  1  0.43283100  0.67834400  0.03963100  1
  O  O50  1  0.31856700  0.26765700  0.43493200  1
  O  O51  1  0.06344900  0.66321700  0.97720100  1
  O  O52  1  0.51882900  0.38505500  0.23804800  1
  O  O53  1  0.21722300  0.46869000  0.19512400  1
  O  O54  1  0.30902800  0.78275400  0.83772700  1
  O  O55  1  0.12561900  0.01739600  0.58612000  1
  O  O56  1  0.82548100  0.96758500  0.60518400  1
  O  O57  1  0.63517500  0.68133100  0.89789600  1
  O  O58  1  0.62096600  0.11665900  0.43174200  1
  O  O59  1  0.92478600  0.38474600  0.18441200  1
  O  O60  1  0.07521400  0.61525400  0.81558800  1
  O  O61  1  0.37903400  0.88334100  0.56825800  1
  O  O62  1  0.36482500  0.31866900  0.10210400  1
  O  O63  1  0.17451900  0.03241500  0.39481600  1
  O  O64  1  0.87438100  0.98260400  0.41388000  1
  O  O65  1  0.69097200  0.21724600  0.16227300  1
  O  O66  1  0.78277700  0.53131000  0.80487600  1
  O  O67  1  0.48117100  0.61494500  0.76195200  1
  O  O68  1  0.93655100  0.33678300  0.02279900  1
  O  O69  1  0.68143300  0.73234300  0.56506800  1
  O  O70  1  0.56716900  0.32165600  0.96036900  1
  O  O71  1  0.99486700  0.04489800  0.23059900  1
  O  O72  1  0.06716900  0.67834400  0.53963100  1
  O  O73  1  0.49486700  0.95510200  0.26940100  1
  O  O74  1  0.18143300  0.26765700  0.93493200  1
  O  O75  1  0.98117100  0.38505500  0.73804800  1
  O  O76  1  0.28277700  0.46869000  0.69512400  1
  O  O77  1  0.43655100  0.66321700  0.47720100  1
  O  O78  1  0.19097200  0.78275400  0.33772700  1
  O  O79  1  0.37438100  0.01739600  0.08612000  1
  O  O80  1  0.87903400  0.11665900  0.93174200  1
  O  O81  1  0.67451900  0.96758500  0.10518400  1
  O  O82  1  0.86482500  0.68133100  0.39789600  1
  O  O83  1  0.57521400  0.38474600  0.68441200  1
