# generated using pymatgen
data_Li9V2P4HO18
_symmetry_space_group_name_H-M   'P 1'
_cell_length_a   10.71743101
_cell_length_b   10.71743101
_cell_length_c   10.71743101
_cell_angle_alpha   142.56960702
_cell_angle_beta   97.32732972
_cell_angle_gamma   94.49487695
_symmetry_Int_Tables_number   1
_chemical_formula_structural   Li9V2P4HO18
_chemical_formula_sum   'Li18 V4 P8 H2 O36'
_cell_volume   708.39420499
_cell_formula_units_Z   2
loop_
 _symmetry_equiv_pos_site_id
 _symmetry_equiv_pos_as_xyz
  1  'x, y, z'
loop_
 _atom_site_type_symbol
 _atom_site_label
 _atom_site_symmetry_multiplicity
 _atom_site_fract_x
 _atom_site_fract_y
 _atom_site_fract_z
 _atom_site_occupancy
  Li  Li0  1  0.02338800  0.24424600  0.75826600  1
  Li  Li1  1  0.02338800  0.76512200  0.27914200  1
  Li  Li2  1  0.75751100  0.87907400  0.37843700  1
  Li  Li3  1  0.99895900  0.61724000  0.88171900  1
  Li  Li4  1  0.24058300  0.87624700  0.86433600  1
  Li  Li5  1  0.50412000  0.00412000  0.50000000  1
  Li  Li6  1  0.27168800  0.27168800  0.00000000  1
  Li  Li7  1  0.74789200  0.74789200  0.00000000  1
  Li  Li8  1  0.99023700  0.99023700  0.00000000  1
  Li  Li9  1  0.27168800  0.77168800  0.50000000  1
  Li  Li10  1  0.50412000  0.50412000  0.00000000  1
  Li  Li11  1  0.99023700  0.49023700  0.50000000  1
  Li  Li12  1  0.74789200  0.24789200  0.50000000  1
  Li  Li13  1  0.01191100  0.37624700  0.13566400  1
  Li  Li14  1  0.73552200  0.11724000  0.11828100  1
  Li  Li15  1  0.50063800  0.37907400  0.62156300  1
  Li  Li16  1  0.48598000  0.74424600  0.72085800  1
  Li  Li17  1  0.48598000  0.26512200  0.24173400  1
  V  V18  1  0.24545900  0.99815500  0.24074800  1
  V  V19  1  0.75740700  0.49815500  0.25269600  1
  V  V20  1  0.24545900  0.50471100  0.74730400  1
  V  V21  1  0.75740700  0.00471100  0.75925200  1
  P  P22  1  0.97058900  0.10878100  0.36180800  1
  P  P23  1  0.75662200  0.39060800  0.86601400  1
  P  P24  1  0.24847200  0.38934400  0.35912800  1
  P  P25  1  0.48505200  0.11484100  0.87021100  1
  P  P26  1  0.24463000  0.61484100  0.12978900  1
  P  P27  1  0.03021500  0.88934400  0.64087200  1
  P  P28  1  0.74697300  0.60878100  0.63819200  1
  P  P29  1  0.52459300  0.89060800  0.13398600  1
  H  H30  1  0.58372400  0.68936200  0.39436200  1
  H  H31  1  0.29499900  0.18936200  0.60563800  1
  O  O32  1  0.16211000  0.51040200  0.15170800  1
  O  O33  1  0.15401600  0.99265900  0.66135800  1
  O  O34  1  0.20181500  0.44576400  0.88327600  1
  O  O35  1  0.20181500  0.81853900  0.25605100  1
  O  O36  1  0.94943300  0.68456400  0.39381700  1
  O  O37  1  0.94943300  0.05561600  0.76486900  1
  O  O38  1  0.20539600  0.75767100  0.94772500  1
  O  O39  1  0.67862000  0.74297900  0.43564000  1
  O  O40  1  0.94268300  0.01985200  0.42283100  1
  O  O41  1  0.90535000  0.48190300  0.92344700  1
  O  O42  1  0.72279700  0.52462500  0.07695500  1
  O  O43  1  0.04675400  0.35417400  0.56887000  1
  O  O44  1  0.04675400  0.97788500  0.19258000  1
  O  O45  1  0.72279700  0.14584100  0.69817200  1
  O  O46  1  0.45172700  0.17312900  0.77859800  1
  O  O47  1  0.09641600  0.32709400  0.26932200  1
  O  O48  1  0.84346900  0.08863800  0.25483000  1
  O  O49  1  0.66523400  0.40735000  0.75788400  1
  O  O50  1  0.83380800  0.58863800  0.74517000  1
  O  O51  1  0.64946600  0.90735000  0.24211600  1
  O  O52  1  0.39453100  0.67312900  0.22140200  1
  O  O53  1  0.05777200  0.82709400  0.73067800  1
  O  O54  1  0.78530500  0.47788500  0.43113000  1
  O  O55  1  0.78530500  0.85417400  0.80742000  1
  O  O56  1  0.44767000  0.64584100  0.92304500  1
  O  O57  1  0.44767000  0.02462500  0.30182800  1
  O  O58  1  0.55845600  0.98190300  0.07655300  1
  O  O59  1  0.59702100  0.51985200  0.57716900  1
  O  O60  1  0.30733900  0.24297900  0.56436000  1
  O  O61  1  0.80994600  0.25767100  0.05227500  1
  O  O62  1  0.29074700  0.55561600  0.60618300  1
  O  O63  1  0.29074700  0.18456400  0.23513100  1
  O  O64  1  0.56248800  0.31853900  0.11672400  1
  O  O65  1  0.56248800  0.94576400  0.74394900  1
  O  O66  1  0.35869400  0.01040200  0.84829200  1
  O  O67  1  0.33130100  0.49265900  0.33864200  1
