# generated using pymatgen
data_LiSn3Sb(PO4)6
_symmetry_space_group_name_H-M   'P 1'
_cell_length_a   8.97603583
_cell_length_b   8.97603583
_cell_length_c   8.97603585
_cell_angle_alpha   58.29544487
_cell_angle_beta   58.29544487
_cell_angle_gamma   58.29544726
_symmetry_Int_Tables_number   1
_chemical_formula_structural   LiSn3Sb(PO4)6
_chemical_formula_sum   'Li1 Sn3 Sb1 P6 O24'
_cell_volume   491.41130772
_cell_formula_units_Z   1
loop_
 _symmetry_equiv_pos_site_id
 _symmetry_equiv_pos_as_xyz
  1  'x, y, z'
loop_
 _atom_site_type_symbol
 _atom_site_label
 _atom_site_symmetry_multiplicity
 _atom_site_fract_x
 _atom_site_fract_y
 _atom_site_fract_z
 _atom_site_occupancy
  Li  Li0  1  0.00235500  0.00235500  0.00235500  1
  Sn  Sn1  1  0.14607000  0.14607000  0.14607000  1
  Sn  Sn2  1  0.35726600  0.35726600  0.35726600  1
  Sn  Sn3  1  0.64191300  0.64191300  0.64191300  1
  Sb  Sb4  1  0.85373200  0.85373200  0.85373200  1
  P  P5  1  0.45810800  0.75098300  0.03783600  1
  P  P6  1  0.75098300  0.03783600  0.45810800  1
  P  P7  1  0.03783600  0.45810800  0.75098300  1
  P  P8  1  0.96076000  0.54498500  0.24485400  1
  P  P9  1  0.24485400  0.96076000  0.54498500  1
  P  P10  1  0.54498500  0.24485400  0.96076000  1
  O  O11  1  0.52003600  0.26808500  0.13104100  1
  O  O12  1  0.13104100  0.52003600  0.26808500  1
  O  O13  1  0.27556500  0.92120200  0.05895000  1
  O  O14  1  0.26808500  0.13104100  0.52003600  1
  O  O15  1  0.44267900  0.58079400  0.21555600  1
  O  O16  1  0.62502600  0.78783900  0.01137000  1
  O  O17  1  0.92120200  0.05895000  0.27556500  1
  O  O18  1  0.58079400  0.21555600  0.44267900  1
  O  O19  1  0.21555600  0.44267900  0.58079400  1
  O  O20  1  0.98566400  0.38450200  0.20672300  1
  O  O21  1  0.93770600  0.73172700  0.07141800  1
  O  O22  1  0.20672300  0.98566400  0.38450200  1
  O  O23  1  0.78783900  0.01137000  0.62502600  1
  O  O24  1  0.05895000  0.27556500  0.92120200  1
  O  O25  1  0.01137000  0.62502600  0.78783900  1
  O  O26  1  0.78101900  0.57234900  0.41040800  1
  O  O27  1  0.41040800  0.78101900  0.57234900  1
  O  O28  1  0.07141800  0.93770600  0.73172700  1
  O  O29  1  0.38450200  0.20672300  0.98566400  1
  O  O30  1  0.57234900  0.41040800  0.78101900  1
  O  O31  1  0.72334200  0.86856800  0.48957100  1
  O  O32  1  0.73172700  0.07141800  0.93770600  1
  O  O33  1  0.86856800  0.48957100  0.72334200  1
  O  O34  1  0.48957100  0.72334200  0.86856800  1
