# generated using pymatgen
data_Li3Fe9O5F11
_symmetry_space_group_name_H-M   'P 1'
_cell_length_a   6.27003600
_cell_length_b   6.28720319
_cell_length_c   10.70296139
_cell_angle_alpha   73.05042305
_cell_angle_beta   72.98149852
_cell_angle_gamma   60.40975596
_symmetry_Int_Tables_number   1
_chemical_formula_structural   Li3Fe9O5F11
_chemical_formula_sum   'Li3 Fe9 O5 F11'
_cell_volume   345.30134029
_cell_formula_units_Z   1
loop_
 _symmetry_equiv_pos_site_id
 _symmetry_equiv_pos_as_xyz
  1  'x, y, z'
loop_
 _atom_site_type_symbol
 _atom_site_label
 _atom_site_symmetry_multiplicity
 _atom_site_fract_x
 _atom_site_fract_y
 _atom_site_fract_z
 _atom_site_occupancy
  Li  Li0  1  0.92730900  0.94524000  0.68774000  1
  Li  Li1  1  0.94280900  0.44509500  0.19446400  1
  Li  Li2  1  0.44401600  0.93763700  0.19779600  1
  Fe  Fe3  1  0.68743900  0.70245900  0.92661800  1
  Fe  Fe4  1  0.98355400  0.99090700  0.02713900  1
  Fe  Fe5  1  0.43964200  0.94316400  0.69222500  1
  Fe  Fe6  1  0.93235500  0.44621700  0.68839400  1
  Fe  Fe7  1  0.86380600  0.86645200  0.35431500  1
  Fe  Fe8  1  0.43272700  0.35115400  0.85933100  1
  Fe  Fe9  1  0.47753900  0.47400400  0.50930300  1
  Fe  Fe10  1  0.42346700  0.42902800  0.19907100  1
  Fe  Fe11  1  0.20018000  0.20458700  0.42530500  1
  O  O12  1  0.59224700  0.57301200  0.79950600  1
  O  O13  1  0.58375600  0.03025600  0.80551100  1
  O  O14  1  0.26961200  0.29935800  0.57405400  1
  O  O15  1  0.07191600  0.55209600  0.29794900  1
  O  O16  1  0.54968500  0.08000500  0.29633400  1
  F  F17  1  0.82755700  0.82350700  0.56545100  1
  F  F18  1  0.82156700  0.30032700  0.56219300  1
  F  F19  1  0.30164400  0.82893300  0.57036800  1
  F  F20  1  0.06395600  0.57469500  0.81127100  1
  F  F21  1  0.79404000  0.78901300  0.07081000  1
  F  F22  1  0.56382700  0.56966600  0.30737700  1
  F  F23  1  0.05067900  0.06239200  0.82243300  1
  F  F24  1  0.79778200  0.34480800  0.06093700  1
  F  F25  1  0.33192100  0.79600300  0.07091200  1
  F  F26  1  0.07699400  0.07823600  0.30827700  1
  F  F27  1  0.29797700  0.31174700  0.06491600  1
