# generated using pymatgen
data_Li5Fe8(BO3)8
_symmetry_space_group_name_H-M   'P 1'
_cell_length_a   5.29378600
_cell_length_b   9.06757958
_cell_length_c   10.12543866
_cell_angle_alpha   90.39228833
_cell_angle_beta   91.63201867
_cell_angle_gamma   90.34098710
_symmetry_Int_Tables_number   1
_chemical_formula_structural   Li5Fe8(BO3)8
_chemical_formula_sum   'Li5 Fe8 B8 O24'
_cell_volume   485.82181173
_cell_formula_units_Z   1
loop_
 _symmetry_equiv_pos_site_id
 _symmetry_equiv_pos_as_xyz
  1  'x, y, z'
loop_
 _atom_site_type_symbol
 _atom_site_label
 _atom_site_symmetry_multiplicity
 _atom_site_fract_x
 _atom_site_fract_y
 _atom_site_fract_z
 _atom_site_occupancy
  Li  Li0  1  0.66615600  0.00482900  0.15352900  1
  Li  Li1  1  0.34047800  0.00159300  0.90411200  1
  Li  Li2  1  0.83660100  0.49723800  0.88377800  1
  Li  Li3  1  0.16006000  0.51197000  0.15295100  1
  Li  Li4  1  0.35428400  0.99216700  0.41760000  1
  Fe  Fe5  1  0.83543500  0.15637100  0.87754700  1
  Fe  Fe6  1  0.15611700  0.17084500  0.63393500  1
  Fe  Fe7  1  0.66445100  0.34284300  0.13053900  1
  Fe  Fe8  1  0.34386400  0.33719200  0.37646100  1
  Fe  Fe9  1  0.66228300  0.67020200  0.63408600  1
  Fe  Fe10  1  0.84859300  0.82842400  0.38217500  1
  Fe  Fe11  1  0.33451300  0.65927700  0.87932400  1
  Fe  Fe12  1  0.16024700  0.83976100  0.12784200  1
  B  B13  1  0.83025100  0.16689600  0.37567300  1
  B  B14  1  0.66079700  0.33305800  0.63112700  1
  B  B15  1  0.16474000  0.16852300  0.12947500  1
  B  B16  1  0.33681700  0.33059600  0.87980900  1
  B  B17  1  0.66565700  0.66882300  0.12424200  1
  B  B18  1  0.34652800  0.67051800  0.37841900  1
  B  B19  1  0.83571000  0.83375900  0.88020100  1
  B  B20  1  0.16965500  0.83536700  0.63003600  1
  O  O21  1  0.70805800  0.03435800  0.36265600  1
  O  O22  1  0.90903500  0.16605900  0.09600500  1
  O  O23  1  0.31181900  0.04488500  0.11499200  1
  O  O24  1  0.80381900  0.20867200  0.66141600  1
  O  O25  1  0.70111700  0.29663700  0.34480700  1
  O  O26  1  0.22343000  0.19563500  0.83250400  1
  O  O27  1  0.08993500  0.17624300  0.41598700  1
  O  O28  1  0.59072400  0.32748000  0.91782400  1
  O  O29  1  0.75200300  0.46987400  0.65774500  1
  O  O30  1  0.41380400  0.31140800  0.57635700  1
  O  O31  1  0.27851200  0.30136800  0.17570300  1
  O  O32  1  0.80896300  0.54266200  0.10998600  1
  O  O33  1  0.19384600  0.45408800  0.88896500  1
  O  O34  1  0.72525200  0.69874800  0.83960000  1
  O  O35  1  0.58269900  0.67875000  0.43980800  1
  O  O36  1  0.23690800  0.53455000  0.34969000  1
  O  O37  1  0.40749900  0.66590400  0.09274000  1
  O  O38  1  0.91884300  0.81460700  0.59444600  1
  O  O39  1  0.78304000  0.79950100  0.16691900  1
  O  O40  1  0.31493900  0.71832700  0.67291500  1
  O  O41  1  0.22479800  0.80082700  0.34265900  1
  O  O42  1  0.68867100  0.95721600  0.89021700  1
  O  O43  1  0.09317100  0.83873000  0.91308800  1
  O  O44  1  0.27476400  0.97514800  0.61567600  1
