# generated using pymatgen
data_Li35(FeO4)8
_symmetry_space_group_name_H-M   'P 1'
_cell_length_a   9.18812700
_cell_length_b   9.26759719
_cell_length_c   9.43769127
_cell_angle_alpha   89.74714746
_cell_angle_beta   89.82814928
_cell_angle_gamma   89.96065535
_symmetry_Int_Tables_number   1
_chemical_formula_structural   Li35(FeO4)8
_chemical_formula_sum   'Li35 Fe8 O32'
_cell_volume   803.62534219
_cell_formula_units_Z   1
loop_
 _symmetry_equiv_pos_site_id
 _symmetry_equiv_pos_as_xyz
  1  'x, y, z'
loop_
 _atom_site_type_symbol
 _atom_site_label
 _atom_site_symmetry_multiplicity
 _atom_site_fract_x
 _atom_site_fract_y
 _atom_site_fract_z
 _atom_site_occupancy
  Li  Li0  1  0.37339100  0.13614800  0.89946800  1
  Li  Li1  1  0.12396700  0.63824100  0.89845500  1
  Li  Li2  1  0.61485900  0.33202600  0.88411400  1
  Li  Li3  1  0.15299400  0.36227300  0.88630500  1
  Li  Li4  1  0.35234600  0.85474800  0.88503300  1
  Li  Li5  1  0.88125200  0.41263000  0.83977200  1
  Li  Li6  1  0.62984600  0.91596500  0.84269800  1
  Li  Li7  1  0.11707600  0.91632600  0.66460200  1
  Li  Li8  1  0.38144800  0.41551100  0.66242300  1
  Li  Li9  1  0.84589000  0.85728400  0.63169500  1
  Li  Li10  1  0.65568400  0.36056000  0.61589200  1
  Li  Li11  1  0.38920200  0.83252900  0.61755400  1
  Li  Li12  1  0.11062900  0.33106600  0.61772700  1
  Li  Li13  1  0.86875000  0.13662600  0.60038500  1
  Li  Li14  1  0.62290700  0.63106600  0.59722800  1
  Li  Li15  1  0.38392200  0.36083700  0.38706300  1
  Li  Li16  1  0.11502800  0.86486200  0.38865700  1
  Li  Li17  1  0.88600800  0.65542200  0.39121000  1
  Li  Li18  1  0.61382100  0.15418900  0.39182800  1
  Li  Li19  1  0.35057300  0.62772600  0.37852800  1
  Li  Li20  1  0.15231400  0.13058900  0.38022800  1
  Li  Li21  1  0.37964100  0.89721500  0.35124700  1
  Li  Li22  1  0.12168000  0.39323500  0.35127000  1
  Li  Li23  1  0.88349300  0.10217000  0.33698100  1
  Li  Li24  1  0.61457900  0.60425600  0.33721200  1
  Li  Li25  1  0.38845600  0.10775900  0.16470600  1
  Li  Li26  1  0.11751300  0.59849800  0.16324400  1
  Li  Li27  1  0.62191800  0.39606100  0.14960200  1
  Li  Li28  1  0.87449500  0.89512000  0.13287000  1
  Li  Li29  1  0.84716300  0.62866000  0.12226600  1
  Li  Li30  1  0.65040900  0.13179900  0.12247900  1
  Li  Li31  1  0.39087200  0.65267700  0.10537600  1
  Li  Li32  1  0.11096600  0.15818500  0.11054500  1
  Li  Li33  1  0.88314200  0.36039100  0.11178200  1
  Li  Li34  1  0.61627100  0.86414200  0.11182600  1
  Fe  Fe35  1  0.87104100  0.11888200  0.87563100  1
  Fe  Fe36  1  0.63050600  0.62190600  0.87282900  1
  Fe  Fe37  1  0.37004600  0.12090700  0.62383300  1
  Fe  Fe38  1  0.12976400  0.62146300  0.62378900  1
  Fe  Fe39  1  0.85155800  0.37829700  0.38207100  1
  Fe  Fe40  1  0.64944100  0.87811100  0.38275600  1
  Fe  Fe41  1  0.35052400  0.37978500  0.11704100  1
  Fe  Fe42  1  0.14873000  0.87772600  0.11758900  1
  O  O43  1  0.73509900  0.49637200  0.99397500  1
  O  O44  1  0.75787700  0.00512800  0.99665900  1
  O  O45  1  0.98257500  0.25240500  0.97422700  1
  O  O46  1  0.52127300  0.75220500  0.97432900  1
  O  O47  1  0.94395200  0.00224200  0.74333100  1
  O  O48  1  0.55751600  0.48802500  0.75000300  1
  O  O49  1  0.77587100  0.24864600  0.75856600  1
  O  O50  1  0.70363800  0.74587800  0.74636900  1
  O  O51  1  0.27557500  0.24698500  0.74121400  1
  O  O52  1  0.22375300  0.74759000  0.74130500  1
  O  O53  1  0.43949700  0.99154600  0.75345500  1
  O  O54  1  0.05849300  0.49076100  0.75131400  1
  O  O55  1  0.48100600  0.25274000  0.52638300  1
  O  O56  1  0.02026400  0.75280400  0.52566900  1
  O  O57  1  0.23388800  0.49572200  0.50370800  1
  O  O58  1  0.26488300  0.99524200  0.50422400  1
  O  O59  1  0.76378000  0.00543100  0.48192400  1
  O  O60  1  0.73625200  0.50743500  0.48022500  1
  O  O61  1  0.99356200  0.25063300  0.46449500  1
  O  O62  1  0.50374700  0.75172100  0.46258200  1
  O  O63  1  0.96327000  0.49831600  0.25654600  1
  O  O64  1  0.53782700  0.00076300  0.25862300  1
  O  O65  1  0.74892100  0.25897900  0.25315500  1
  O  O66  1  0.74994600  0.75954500  0.25116600  1
  O  O67  1  0.24975500  0.25779800  0.24761300  1
  O  O68  1  0.25451500  0.76197200  0.24082000  1
  O  O69  1  0.46128500  0.49965200  0.24300800  1
  O  O70  1  0.03688100  0.99869900  0.23604900  1
  O  O71  1  0.01635400  0.75085900  0.05261900  1
  O  O72  1  0.49100200  0.25264400  0.03388400  1
  O  O73  1  0.26676400  0.00298400  0.02731200  1
  O  O74  1  0.23718000  0.50934500  0.01695400  1
