# generated using pymatgen
data_Li2V(PO4)2
_symmetry_space_group_name_H-M   'P 1'
_cell_length_a   6.87935800
_cell_length_b   8.94768000
_cell_length_c   10.85989200
_cell_angle_alpha   90.00000000
_cell_angle_beta   90.00000000
_cell_angle_gamma   90.00000000
_symmetry_Int_Tables_number   1
_chemical_formula_structural   Li2V(PO4)2
_chemical_formula_sum   'Li8 V4 P8 O32'
_cell_volume   668.47298486
_cell_formula_units_Z   4
loop_
 _symmetry_equiv_pos_site_id
 _symmetry_equiv_pos_as_xyz
  1  'x, y, z'
loop_
 _atom_site_type_symbol
 _atom_site_label
 _atom_site_symmetry_multiplicity
 _atom_site_fract_x
 _atom_site_fract_y
 _atom_site_fract_z
 _atom_site_occupancy
  Li  Li0  1  0.22929000  0.26244400  0.00853200  1
  Li  Li1  1  0.37163700  0.90779200  0.89602200  1
  Li  Li2  1  0.12836300  0.09220800  0.39602200  1
  Li  Li3  1  0.27071000  0.73755600  0.50853200  1
  Li  Li4  1  0.72929000  0.23755600  0.99146800  1
  Li  Li5  1  0.87163700  0.59220800  0.10397800  1
  Li  Li6  1  0.62836300  0.40779200  0.60397800  1
  Li  Li7  1  0.77071000  0.76244400  0.49146800  1
  V  V8  1  0.25638600  0.22369600  0.68353200  1
  V  V9  1  0.24361400  0.77630400  0.18353200  1
  V  V10  1  0.75638600  0.27630400  0.31646800  1
  V  V11  1  0.74361400  0.72369600  0.81646800  1
  P  P12  1  0.97035900  0.43715300  0.85276400  1
  P  P13  1  0.12697300  0.49492100  0.33571000  1
  P  P14  1  0.37302700  0.50507900  0.83571000  1
  P  P15  1  0.52964100  0.56284700  0.35276400  1
  P  P16  1  0.47035900  0.06284700  0.14723600  1
  P  P17  1  0.62697300  0.00507900  0.66429000  1
  P  P18  1  0.87302700  0.99492100  0.16429000  1
  P  P19  1  0.02964100  0.93715300  0.64723600  1
  O  O20  1  0.97205000  0.84160100  0.17829000  1
  O  O21  1  0.07338700  0.59480800  0.44238300  1
  O  O22  1  0.09340300  0.91234300  0.51443700  1
  O  O23  1  0.05256500  0.28798400  0.80259200  1
  O  O24  1  0.11649700  0.57643500  0.20906800  1
  O  O25  1  0.18790000  0.00619000  0.73062000  1
  O  O26  1  0.17675500  0.22882300  0.54260300  1
  O  O27  1  0.14710000  0.55590000  0.85140100  1
  O  O28  1  0.35290000  0.44410000  0.35140100  1
  O  O29  1  0.32324500  0.77117700  0.04260300  1
  O  O30  1  0.31210000  0.99381000  0.23062000  1
  O  O31  1  0.38350300  0.42356500  0.70906800  1
  O  O32  1  0.44743500  0.71201600  0.30259200  1
  O  O33  1  0.40659700  0.08765700  0.01443700  1
  O  O34  1  0.42661300  0.40519200  0.94238300  1
  O  O35  1  0.52795000  0.15839900  0.67829000  1
  O  O36  1  0.47205000  0.65839900  0.82171000  1
  O  O37  1  0.57338700  0.90519200  0.55761700  1
  O  O38  1  0.59340300  0.58765700  0.48556300  1
  O  O39  1  0.55256500  0.21201600  0.19740800  1
  O  O40  1  0.61649700  0.92356500  0.79093200  1
  O  O41  1  0.68790000  0.49381000  0.26938000  1
  O  O42  1  0.67675500  0.27117700  0.45739700  1
  O  O43  1  0.64710000  0.94410000  0.14859900  1
  O  O44  1  0.85290000  0.05590000  0.64859900  1
  O  O45  1  0.82324500  0.72882300  0.95739700  1
  O  O46  1  0.81210000  0.50619000  0.76938000  1
  O  O47  1  0.88350300  0.07643500  0.29093200  1
  O  O48  1  0.94743500  0.78798400  0.69740800  1
  O  O49  1  0.90659700  0.41234300  0.98556300  1
  O  O50  1  0.92661300  0.09480800  0.05761700  1
  O  O51  1  0.02795000  0.34160100  0.32171000  1
