# generated using pymatgen
data_Li3V3P8O29
_symmetry_space_group_name_H-M   'P 1'
_cell_length_a   9.68821900
_cell_length_b   9.72886121
_cell_length_c   14.37382204
_cell_angle_alpha   91.43793565
_cell_angle_beta   89.49362064
_cell_angle_gamma   119.46788135
_symmetry_Int_Tables_number   1
_chemical_formula_structural   Li3V3P8O29
_chemical_formula_sum   'Li6 V6 P16 O58'
_cell_volume   1179.15890771
_cell_formula_units_Z   2
loop_
 _symmetry_equiv_pos_site_id
 _symmetry_equiv_pos_as_xyz
  1  'x, y, z'
loop_
 _atom_site_type_symbol
 _atom_site_label
 _atom_site_symmetry_multiplicity
 _atom_site_fract_x
 _atom_site_fract_y
 _atom_site_fract_z
 _atom_site_occupancy
  Li  Li0  1  0.77304400  0.67902600  0.93984300  1
  Li  Li1  1  0.09177600  0.32524200  0.55955100  1
  Li  Li2  1  0.90541400  0.67435200  0.43914800  1
  Li  Li3  1  0.68252700  0.91470900  0.05765500  1
  Li  Li4  1  0.07909900  0.06642500  0.00940300  1
  Li  Li5  1  0.99114800  0.99494900  0.50022800  1
  V  V6  1  0.99613900  0.43437000  0.75585700  1
  V  V7  1  0.00357700  0.56376900  0.24162000  1
  V  V8  1  0.43390600  0.43229000  0.25130200  1
  V  V9  1  0.55798900  0.56171200  0.74614400  1
  V  V10  1  0.43568100  0.99926200  0.74623100  1
  V  V11  1  0.55911400  0.00139800  0.25789400  1
  P  P12  1  0.30242200  0.08081900  0.16104900  1
  P  P13  1  0.30137500  0.21523500  0.66019400  1
  P  P14  1  0.78614700  0.08055600  0.66285600  1
  P  P15  1  0.66281100  0.33458800  0.86637500  1
  P  P16  1  0.67239600  0.34299600  0.36524300  1
  P  P17  1  0.91178900  0.21011200  0.16306700  1
  P  P18  1  0.08743200  0.31524300  0.34309200  1
  P  P19  1  0.76977700  0.68151300  0.15572300  1
  P  P20  1  0.22522000  0.31078000  0.84298500  1
  P  P21  1  0.90882100  0.68132300  0.65513400  1
  P  P22  1  0.08705800  0.78748500  0.83358300  1
  P  P23  1  0.32605900  0.66033600  0.63344100  1
  P  P24  1  0.34129800  0.66781900  0.13437700  1
  P  P25  1  0.21070200  0.91525300  0.34241800  1
  P  P26  1  0.69611600  0.78225200  0.33691900  1
  P  P27  1  0.68581100  0.91200200  0.84307500  1
  O  O28  1  0.18307100  0.98870700  0.42646200  1
  O  O29  1  0.34498900  0.08224500  0.66326300  1
  O  O30  1  0.21285400  0.22595400  0.92868800  1
  O  O31  1  0.34497000  0.25744300  0.17156100  1
  O  O32  1  0.45810900  0.07449700  0.17623800  1
  O  O33  1  0.52177700  0.18695000  0.81774200  1
  O  O34  1  0.62127700  0.07215400  0.67084200  1
  O  O35  1  0.75835600  0.98210400  0.93518800  1
  O  O36  1  0.73464100  0.07867700  0.16613200  1
  O  O37  1  0.52137500  0.33605500  0.32188900  1
  O  O38  1  0.45895400  0.37668300  0.67177600  1
  O  O39  1  0.66930300  0.18995200  0.32182300  1
  O  O40  1  0.66870600  0.33705800  0.96935500  1
  O  O41  1  0.68067100  0.35297000  0.46828000  1
  O  O42  1  0.81468600  0.33484700  0.82175000  1
  O  O43  1  0.61729600  0.52466600  0.17329600  1
  O  O44  1  0.66777300  0.48490300  0.82609000  1
  O  O45  1  0.91885500  0.25837400  0.66792300  1
  O  O46  1  0.98589800  0.19419200  0.26023000  1
  O  O47  1  0.02206200  0.24372700  0.43454700  1
  O  O48  1  0.99402100  0.18477500  0.08277600  1
  O  O49  1  0.92056600  0.37576100  0.17065900  1
  O  O50  1  0.81798300  0.48804300  0.32021800  1
  O  O51  1  0.08973900  0.35224800  0.83116300  1
  O  O52  1  0.91198900  0.52700900  0.67311300  1
  O  O53  1  0.73594400  0.64867400  0.67167200  1
  O  O54  1  0.20306800  0.19728000  0.75424100  1
  O  O55  1  0.19942500  0.20292500  0.58010800  1
  O  O56  1  0.80707900  0.80395600  0.41413400  1
  O  O57  1  0.26001300  0.34685800  0.33034800  1
  O  O58  1  0.08670900  0.47099600  0.32299500  1
  O  O59  1  0.91431500  0.65399100  0.16395600  1
  O  O60  1  0.17979900  0.51116000  0.67330000  1
  O  O61  1  0.08326100  0.62479700  0.82521300  1
  O  O62  1  0.99502700  0.80053900  0.91341300  1
  O  O63  1  0.96876200  0.75412100  0.56341900  1
  O  O64  1  0.01177800  0.80388200  0.73687100  1
  O  O65  1  0.08031600  0.73749300  0.33238300  1
  O  O66  1  0.33880500  0.52311200  0.18148900  1
  O  O67  1  0.38366100  0.46549900  0.82770700  1
  O  O68  1  0.18798100  0.66698500  0.17596500  1
  O  O69  1  0.34767000  0.66888500  0.03140800  1
  O  O70  1  0.33105900  0.65421800  0.53045900  1
  O  O71  1  0.32834700  0.81047400  0.67724100  1
  O  O72  1  0.54289500  0.62082300  0.32960700  1
  O  O73  1  0.47497900  0.66230500  0.68158600  1
  O  O74  1  0.26077200  0.92215000  0.83052600  1
  O  O75  1  0.19402500  0.99671500  0.25041600  1
  O  O76  1  0.21080100  0.00556500  0.07548300  1
  O  O77  1  0.37712000  0.92395100  0.33163500  1
  O  O78  1  0.48717300  0.81642700  0.17933700  1
  O  O79  1  0.52872300  0.91199100  0.82271400  1
  O  O80  1  0.65655900  0.73931300  0.83472500  1
  O  O81  1  0.76795500  0.75805000  0.06659700  1
  O  O82  1  0.78986800  0.80247800  0.23922700  1
  O  O83  1  0.65336000  0.91694500  0.33478600  1
  O  O84  1  0.81578900  0.00190200  0.58182500  1
  O  O85  1  0.80412600  0.00699500  0.75980600  1
