# generated using pymatgen
data_LiV2CrO6
_symmetry_space_group_name_H-M   'P 1'
_cell_length_a   5.46424309
_cell_length_b   5.46601160
_cell_length_c   5.46578323
_cell_angle_alpha   54.88151304
_cell_angle_beta   54.89930550
_cell_angle_gamma   54.88097638
_symmetry_Int_Tables_number   1
_chemical_formula_structural   LiV2CrO6
_chemical_formula_sum   'Li1 V2 Cr1 O6'
_cell_volume   101.69688695
_cell_formula_units_Z   1
loop_
 _symmetry_equiv_pos_site_id
 _symmetry_equiv_pos_as_xyz
  1  'x, y, z'
loop_
 _atom_site_type_symbol
 _atom_site_label
 _atom_site_symmetry_multiplicity
 _atom_site_fract_x
 _atom_site_fract_y
 _atom_site_fract_z
 _atom_site_occupancy
  Li  Li0  1  0.28973300  0.28972300  0.28975400  1
  V  V1  1  0.00282900  0.00288900  0.00258300  1
  V  V2  1  0.49702300  0.49712900  0.49694900  1
  Cr  Cr3  1  0.80099200  0.80112100  0.80092100  1
  O  O4  1  0.10416400  0.71756200  0.39671100  1
  O  O5  1  0.39672800  0.10413800  0.71744600  1
  O  O6  1  0.71749000  0.39674500  0.10417400  1
  O  O7  1  0.22479900  0.61433400  0.85248900  1
  O  O8  1  0.61449400  0.85254800  0.22461800  1
  O  O9  1  0.85254900  0.22461000  0.61435400  1
