# generated using pymatgen
data_Li3V3P8O29
_symmetry_space_group_name_H-M   'P 1'
_cell_length_a   9.76023500
_cell_length_b   9.76516297
_cell_length_c   14.16811562
_cell_angle_alpha   89.78578618
_cell_angle_beta   89.58230021
_cell_angle_gamma   60.16071983
_symmetry_Int_Tables_number   1
_chemical_formula_structural   Li3V3P8O29
_chemical_formula_sum   'Li6 V6 P16 O58'
_cell_volume   1171.31046165
_cell_formula_units_Z   2
loop_
 _symmetry_equiv_pos_site_id
 _symmetry_equiv_pos_as_xyz
  1  'x, y, z'
loop_
 _atom_site_type_symbol
 _atom_site_label
 _atom_site_symmetry_multiplicity
 _atom_site_fract_x
 _atom_site_fract_y
 _atom_site_fract_z
 _atom_site_occupancy
  Li  Li0  1  0.31041300  0.77646700  0.94308400  1
  Li  Li1  1  0.91498200  0.31299200  0.94004400  1
  Li  Li2  1  0.77074200  0.33075800  0.44260000  1
  Li  Li3  1  0.68667600  0.22151100  0.05657100  1
  Li  Li4  1  0.67219400  0.08917900  0.55888000  1
  Li  Li5  1  0.06592100  0.95208200  0.49831000  1
  V  V6  1  0.42699300  0.56800900  0.74470400  1
  V  V7  1  0.56109100  0.43991000  0.25182400  1
  V  V8  1  0.99628400  0.56856000  0.25006900  1
  V  V9  1  0.00511200  0.43794300  0.74512900  1
  V  V10  1  0.56602300  0.99479800  0.75424900  1
  V  V11  1  0.43325100  0.00002700  0.25221600  1
  P  P12  1  0.77302700  0.91379600  0.16155600  1
  P  P13  1  0.91636000  0.78007000  0.65787200  1
  P  P14  1  0.30771800  0.91881900  0.65617000  1
  P  P15  1  0.66485900  0.65990700  0.86902600  1
  P  P16  1  0.66688500  0.66630200  0.36944600  1
  P  P17  1  0.31668600  0.77380700  0.15858000  1
  P  P18  1  0.21902400  0.69243800  0.33952000  1
  P  P19  1  0.91125100  0.31794400  0.15573000  1
  P  P20  1  0.08215200  0.68986500  0.84460400  1
  P  P21  1  0.77302900  0.31718100  0.66023900  1
  P  P22  1  0.67750400  0.23231300  0.83978500  1
  P  P23  1  0.33918800  0.32854900  0.62926900  1
  P  P24  1  0.33422500  0.33232700  0.13256300  1
  P  P25  1  0.68572500  0.08837200  0.34406500  1
  P  P26  1  0.08315800  0.22433600  0.33828100  1
  P  P27  1  0.22567900  0.08773300  0.84086200  1
  O  O28  1  0.76443200  0.01962900  0.43564000  1
  O  O29  1  0.74054500  0.91627600  0.66515200  1
  O  O30  1  0.99968300  0.76291800  0.93316800  1
  O  O31  1  0.91398000  0.74294900  0.16602600  1
  O  O32  1  0.61828700  0.90823000  0.17917300  1
  O  O33  1  0.65984500  0.81248100  0.82163000  1
  O  O34  1  0.46479000  0.92040500  0.67079800  1
  O  O35  1  0.23697300  0.99526600  0.92625800  1
  O  O36  1  0.34303500  0.91623100  0.16908700  1
  O  O37  1  0.81329800  0.66843700  0.32399600  1
  O  O38  1  0.91703700  0.61899800  0.67197200  1
  O  O39  1  0.51887700  0.81255300  0.32664000  1
  O  O40  1  0.66199300  0.66394900  0.97366400  1
  O  O41  1  0.67214200  0.65434900  0.47408100  1
  O  O42  1  0.51450900  0.66306800  0.82772900  1
  O  O43  1  0.90383900  0.47708900  0.17720500  1
  O  O44  1  0.81642500  0.51436700  0.82645100  1
  O  O45  1  0.34561900  0.74388600  0.66954800  1
  O  O46  1  0.20120100  0.79185900  0.24435600  1
  O  O47  1  0.21005900  0.78427800  0.42377800  1
  O  O48  1  0.25444700  0.75804500  0.06696100  1
  O  O49  1  0.47784600  0.62110600  0.18175200  1
  O  O50  1  0.67315600  0.51057700  0.32817900  1
  O  O51  1  0.25460500  0.66176000  0.83628200  1
  O  O52  1  0.61630500  0.47510000  0.67436100  1
  O  O53  1  0.91379000  0.34664800  0.66625500  1
  O  O54  1  0.99727000  0.79685900  0.75225100  1
  O  O55  1  0.99425900  0.79401900  0.57174000  1
  O  O56  1  0.99338400  0.21128600  0.42025500  1
  O  O57  1  0.08434600  0.65341200  0.33199500  1
  O  O58  1  0.38025000  0.53478100  0.32728700  1
  O  O59  1  0.74097400  0.34091400  0.16342900  1
  O  O60  1  0.33222400  0.48155200  0.67462500  1
  O  O61  1  0.51924300  0.38342100  0.82070300  1
  O  O62  1  0.75419100  0.24276400  0.92847400  1
  O  O63  1  0.77053300  0.23428500  0.57185800  1
  O  O64  1  0.79278000  0.20886700  0.75103800  1
  O  O65  1  0.65667000  0.26100000  0.33590800  1
  O  O66  1  0.18446000  0.47538700  0.17706800  1
  O  O67  1  0.09076400  0.52780400  0.82024800  1
  O  O68  1  0.48312300  0.33681500  0.17584000  1
  O  O69  1  0.34534700  0.32785300  0.02803100  1
  O  O70  1  0.34174400  0.33330900  0.52481700  1
  O  O71  1  0.49057700  0.18252100  0.66983500  1
  O  O72  1  0.07945400  0.38409300  0.32867000  1
  O  O73  1  0.18977600  0.32877500  0.67470000  1
  O  O74  1  0.65376000  0.08730300  0.83359900  1
  O  O75  1  0.79685000  0.99552800  0.25594800  1
  O  O76  1  0.76556600  0.00684500  0.07709900  1
  O  O77  1  0.52862800  0.08882500  0.32882300  1
  O  O78  1  0.34097900  0.18222500  0.17845800  1
  O  O79  1  0.38088500  0.09462600  0.82210100  1
  O  O80  1  0.08341700  0.25850800  0.83871200  1
  O  O81  1  0.98572500  0.24876100  0.06338900  1
  O  O82  1  0.00703200  0.20286100  0.24143800  1
  O  O83  1  0.25668200  0.08779600  0.33443200  1
  O  O84  1  0.21652700  0.99027800  0.56978700  1
  O  O85  1  0.20209500  0.00682100  0.74815400  1
