# generated using pymatgen
data_Li3V3P8O29
_symmetry_space_group_name_H-M   'P 1'
_cell_length_a   9.78247963
_cell_length_b   9.78247963
_cell_length_c   13.97302043
_cell_angle_alpha   89.98762452
_cell_angle_beta   89.98762452
_cell_angle_gamma   59.88756466
_symmetry_Int_Tables_number   1
_chemical_formula_structural   Li3V3P8O29
_chemical_formula_sum   'Li6 V6 P16 O58'
_cell_volume   1156.71310920
_cell_formula_units_Z   2
loop_
 _symmetry_equiv_pos_site_id
 _symmetry_equiv_pos_as_xyz
  1  'x, y, z'
loop_
 _atom_site_type_symbol
 _atom_site_label
 _atom_site_symmetry_multiplicity
 _atom_site_fract_x
 _atom_site_fract_y
 _atom_site_fract_z
 _atom_site_occupancy
  Li  Li0  1  0.77284200  0.90584500  0.19503100  1
  Li  Li1  1  0.77276600  0.31726500  0.68842100  1
  Li  Li2  1  0.68273500  0.22723400  0.31157900  1
  Li  Li3  1  0.31297400  0.77787400  0.19636200  1
  Li  Li4  1  0.22212600  0.68702600  0.80363800  1
  Li  Li5  1  0.09415500  0.22715800  0.80496900  1
  V  V6  1  0.56486200  0.43513800  0.50000000  1
  V  V7  1  0.43593000  0.56407000  0.00000000  1
  V  V8  1  0.56388800  0.00305200  0.99235100  1
  V  V9  1  0.43181400  0.00232200  0.50264300  1
  V  V10  1  0.99767800  0.56818600  0.49735700  1
  V  V11  1  0.99694800  0.43611200  0.00764900  1
  P  P12  1  0.91591600  0.76769900  0.90669100  1
  P  P13  1  0.76861800  0.91370000  0.40973600  1
  P  P14  1  0.91547200  0.31282200  0.40475300  1
  P  P15  1  0.66749700  0.66606000  0.62108500  1
  P  P16  1  0.66338300  0.67167200  0.12173700  1
  P  P17  1  0.77323200  0.31631400  0.90794500  1
  P  P18  1  0.68368600  0.22676800  0.09205500  1
  P  P19  1  0.31273500  0.91492100  0.90657500  1
  P  P20  1  0.68717800  0.08452800  0.59524700  1
  P  P21  1  0.31660900  0.77402200  0.40942100  1
  P  P22  1  0.22597800  0.68339100  0.59057900  1
  P  P23  1  0.33394000  0.33250300  0.37891500  1
  P  P24  1  0.32832800  0.33661700  0.87826300  1
  P  P25  1  0.08507900  0.68726500  0.09342500  1
  P  P26  1  0.23230100  0.08408400  0.09330900  1
  P  P27  1  0.08630000  0.23138200  0.59026400  1
  O  O28  1  0.99425300  0.76645000  0.18008900  1
  O  O29  1  0.91313300  0.74500800  0.41334700  1
  O  O30  1  0.76793800  0.00046900  0.68339500  1
  O  O31  1  0.74435300  0.91044300  0.91518400  1
  O  O32  1  0.90856800  0.61501500  0.92865800  1
  O  O33  1  0.81587300  0.66326300  0.57475200  1
  O  O34  1  0.90805200  0.47375900  0.42550000  1
  O  O35  1  0.00001100  0.24364600  0.68186400  1
  O  O36  1  0.91890200  0.33898100  0.91344700  1
  O  O37  1  0.66815100  0.81745500  0.07970900  1
  O  O38  1  0.61682300  0.90557800  0.42710600  1
  O  O39  1  0.81261400  0.51961800  0.07652500  1
  O  O40  1  0.67090500  0.65691000  0.72739000  1
  O  O41  1  0.66321200  0.66878200  0.22769200  1
  O  O42  1  0.66987000  0.51141400  0.57974600  1
  O  O43  1  0.47635200  0.90439800  0.92506400  1
  O  O44  1  0.52016400  0.81402000  0.57723700  1
  O  O45  1  0.74306300  0.34019200  0.41122600  1
  O  O46  1  0.79246100  0.20753900  0.00000000  1
  O  O47  1  0.75061500  0.24082800  0.18321600  1
  O  O48  1  0.75917200  0.24938500  0.81678400  1
  O  O49  1  0.61908000  0.47863400  0.93029700  1
  O  O50  1  0.51232300  0.67040200  0.07930400  1
  O  O51  1  0.65980800  0.25693700  0.58877400  1
  O  O52  1  0.47780700  0.61872800  0.42971400  1
  O  O53  1  0.34338300  0.91585700  0.41736000  1
  O  O54  1  0.79001800  0.00597000  0.49775400  1
  O  O55  1  0.75635400  0.99998900  0.31813600  1
  O  O56  1  0.24047300  0.99556700  0.17999300  1
  O  O57  1  0.66101900  0.08109800  0.08655300  1
  O  O58  1  0.52136600  0.38092000  0.06970300  1
  O  O59  1  0.33866000  0.74414500  0.91025600  1
  O  O60  1  0.48858600  0.33013000  0.42025400  1
  O  O61  1  0.38127200  0.52219300  0.57028600  1
  O  O62  1  0.24036300  0.75178000  0.68166700  1
  O  O63  1  0.24822000  0.75963700  0.31833300  1
  O  O64  1  0.20578200  0.79421800  0.50000000  1
  O  O65  1  0.25585500  0.66134000  0.08974400  1
  O  O66  1  0.48038200  0.18738600  0.92347500  1
  O  O67  1  0.52624100  0.09194800  0.57450000  1
  O  O68  1  0.32959800  0.48767700  0.92069600  1
  O  O69  1  0.33121800  0.33678800  0.77230800  1
  O  O70  1  0.34309000  0.32909500  0.27261000  1
  O  O71  1  0.18598000  0.47983600  0.42276300  1
  O  O72  1  0.38498500  0.09143200  0.07134200  1
  O  O73  1  0.33673700  0.18412700  0.42524800  1
  O  O74  1  0.08414300  0.65661700  0.58264000  1
  O  O75  1  0.00200000  0.79171100  0.99944100  1
  O  O76  1  0.00443300  0.75952700  0.82000700  1
  O  O77  1  0.09560200  0.52364800  0.07493600  1
  O  O78  1  0.18254500  0.33184900  0.92029100  1
  O  O79  1  0.09442200  0.38317700  0.57289400  1
  O  O80  1  0.25499200  0.08686700  0.58665300  1
  O  O81  1  0.23355000  0.00574700  0.81991100  1
  O  O82  1  0.20828900  0.99800000  0.00055900  1
  O  O83  1  0.08955700  0.25564700  0.08481600  1
  O  O84  1  0.99953100  0.23206200  0.31660500  1
  O  O85  1  0.99403000  0.20998200  0.50224600  1
