# generated using pymatgen
data_Li3Ni2OF5
_symmetry_space_group_name_H-M   'P 1'
_cell_length_a   9.72732158
_cell_length_b   9.26754554
_cell_length_c   5.11541515
_cell_angle_alpha   79.40442773
_cell_angle_beta   69.47005301
_cell_angle_gamma   31.12551926
_symmetry_Int_Tables_number   1
_chemical_formula_structural   Li3Ni2OF5
_chemical_formula_sum   'Li6 Ni4 O2 F10'
_cell_volume   216.69201493
_cell_formula_units_Z   2
loop_
 _symmetry_equiv_pos_site_id
 _symmetry_equiv_pos_as_xyz
  1  'x, y, z'
loop_
 _atom_site_type_symbol
 _atom_site_label
 _atom_site_symmetry_multiplicity
 _atom_site_fract_x
 _atom_site_fract_y
 _atom_site_fract_z
 _atom_site_occupancy
  Li  Li0  1  0.57315800  0.57315800  0.92684200  1
  Li  Li1  1  0.17028900  0.17028900  0.82971100  1
  Li  Li2  1  0.92684200  0.92684200  0.57315800  1
  Li  Li3  1  0.50000000  0.50000000  0.50000000  1
  Li  Li4  1  0.82971100  0.82971100  0.17028900  1
  Li  Li5  1  0.25000000  0.25000000  0.25000000  1
  Ni  Ni6  1  0.67188800  0.67188800  0.32811200  1
  Ni  Ni7  1  0.00000000  0.00000000  0.00000000  1
  Ni  Ni8  1  0.32811200  0.32811200  0.67188800  1
  Ni  Ni9  1  0.75000000  0.75000000  0.75000000  1
  O  O10  1  0.99141900  0.50858100  0.99141900  1
  O  O11  1  0.50858100  0.99141900  0.50858100  1
  F  F12  1  0.35004600  0.81203900  0.68149800  1
  F  F13  1  0.91047500  0.42394100  0.58300900  1
  F  F14  1  0.42394100  0.91047500  0.08257500  1
  F  F15  1  0.68149800  0.15641700  0.35004600  1
  F  F16  1  0.23626100  0.76373900  0.23626100  1
  F  F17  1  0.81203900  0.35004600  0.15641700  1
  F  F18  1  0.15641700  0.68149800  0.81203900  1
  F  F19  1  0.76373900  0.23626100  0.76373900  1
  F  F20  1  0.58300900  0.08257500  0.91047500  1
  F  F21  1  0.08257500  0.58300900  0.42394100  1
