# generated using pymatgen
data_Li8Mn7Fe(BO3)8
_symmetry_space_group_name_H-M   'P 1'
_cell_length_a   6.06063400
_cell_length_b   9.75859372
_cell_length_c   9.90854014
_cell_angle_alpha   64.07586816
_cell_angle_beta   78.77325948
_cell_angle_gamma   78.09653704
_symmetry_Int_Tables_number   1
_chemical_formula_structural   Li8Mn7Fe(BO3)8
_chemical_formula_sum   'Li8 Mn7 Fe1 B8 O24'
_cell_volume   512.07045694
_cell_formula_units_Z   1
loop_
 _symmetry_equiv_pos_site_id
 _symmetry_equiv_pos_as_xyz
  1  'x, y, z'
loop_
 _atom_site_type_symbol
 _atom_site_label
 _atom_site_symmetry_multiplicity
 _atom_site_fract_x
 _atom_site_fract_y
 _atom_site_fract_z
 _atom_site_occupancy
  Li  Li0  1  0.04613400  0.46637600  0.81579900  1
  Li  Li1  1  0.04738100  0.96769700  0.31643500  1
  Li  Li2  1  0.45324000  0.03361000  0.18539600  1
  Li  Li3  1  0.54578600  0.46623300  0.31547900  1
  Li  Li4  1  0.45361300  0.53320000  0.68459800  1
  Li  Li5  1  0.54633300  0.96656000  0.81565000  1
  Li  Li6  1  0.95306800  0.03314000  0.68341600  1
  Li  Li7  1  0.95403700  0.53274000  0.18471800  1
  Mn  Mn8  1  0.31432200  0.29318000  0.62493400  1
  Mn  Mn9  1  0.31391200  0.79376100  0.12599800  1
  Mn  Mn10  1  0.18582700  0.70674000  0.87402100  1
  Mn  Mn11  1  0.81423600  0.29272600  0.12691900  1
  Mn  Mn12  1  0.68625500  0.20582700  0.87430600  1
  Mn  Mn13  1  0.68601700  0.70668900  0.37401900  1
  Mn  Mn14  1  0.81337500  0.79427400  0.62556900  1
  Fe  Fe15  1  0.18497000  0.21002300  0.37301600  1
  B  B16  1  0.33508500  0.36593700  0.03792800  1
  B  B17  1  0.16643400  0.13271100  0.96366600  1
  B  B18  1  0.16658100  0.63242800  0.46385000  1
  B  B19  1  0.33281100  0.86937000  0.53573200  1
  B  B20  1  0.66454200  0.13258100  0.46309600  1
  B  B21  1  0.83489500  0.36668500  0.53474200  1
  B  B22  1  0.83368100  0.86739400  0.03625600  1
  B  B23  1  0.66664400  0.63249400  0.96361300  1
  O  O24  1  0.17487100  0.01621600  0.10690700  1
  O  O25  1  0.01543600  0.24559400  0.56129900  1
  O  O26  1  0.01444300  0.74640800  0.06526600  1
  O  O27  1  0.16329600  0.36149000  0.15580300  1
  O  O28  1  0.17511300  0.51551000  0.60696700  1
  O  O29  1  0.51604700  0.24609000  0.06480900  1
  O  O30  1  0.15886100  0.86500000  0.65168900  1
  O  O31  1  0.34001200  0.13550000  0.84817500  1
  O  O32  1  0.34057100  0.63500200  0.34862400  1
  O  O33  1  0.48333500  0.25335500  0.43394900  1
  O  O34  1  0.32321400  0.48299400  0.89538700  1
  O  O35  1  0.32384400  0.98739900  0.39390800  1
  O  O36  1  0.67297500  0.01667500  0.60687800  1
  O  O37  1  0.67568000  0.51581800  0.10686500  1
  O  O38  1  0.51324200  0.74785600  0.56393700  1
  O  O39  1  0.66292800  0.36373600  0.65117900  1
  O  O40  1  0.65948100  0.86521300  0.15123100  1
  O  O41  1  0.83933700  0.13467200  0.34889400  1
  O  O42  1  0.48547100  0.75304100  0.93517000  1
  O  O43  1  0.82543300  0.48454700  0.39233400  1
  O  O44  1  0.84019900  0.63515300  0.84827800  1
  O  O45  1  0.98535600  0.25343100  0.93528700  1
  O  O46  1  0.98574500  0.75324100  0.43519600  1
  O  O47  1  0.82593300  0.98368500  0.89280800  1
