# generated using pymatgen
data_LiCu2F6
_symmetry_space_group_name_H-M   'P 1'
_cell_length_a   4.58680000
_cell_length_b   5.62066400
_cell_length_c   15.50012399
_cell_angle_alpha   80.31525978
_cell_angle_beta   90.00000000
_cell_angle_gamma   90.00000000
_symmetry_Int_Tables_number   1
_chemical_formula_structural   LiCu2F6
_chemical_formula_sum   'Li4 Cu8 F24'
_cell_volume   393.91148249
_cell_formula_units_Z   4
loop_
 _symmetry_equiv_pos_site_id
 _symmetry_equiv_pos_as_xyz
  1  'x, y, z'
loop_
 _atom_site_type_symbol
 _atom_site_label
 _atom_site_symmetry_multiplicity
 _atom_site_fract_x
 _atom_site_fract_y
 _atom_site_fract_z
 _atom_site_occupancy
  Li  Li0  1  0.50711000  0.12098800  0.07593700  1
  Li  Li1  1  0.99289000  0.12098800  0.57593700  1
  Li  Li2  1  0.00711000  0.87901200  0.42406300  1
  Li  Li3  1  0.49289000  0.87901200  0.92406300  1
  Cu  Cu4  1  0.01480900  0.24158800  0.25205700  1
  Cu  Cu5  1  0.50483300  0.38292600  0.41776200  1
  Cu  Cu6  1  0.48519100  0.24158800  0.75205700  1
  Cu  Cu7  1  0.00483300  0.61707400  0.08223800  1
  Cu  Cu8  1  0.99516700  0.38292600  0.91776200  1
  Cu  Cu9  1  0.51480900  0.75841200  0.24794300  1
  Cu  Cu10  1  0.49516700  0.61707400  0.58223800  1
  Cu  Cu11  1  0.98519100  0.75841200  0.74794300  1
  F  F12  1  0.28070500  0.03906500  0.19652800  1
  F  F13  1  0.24100900  0.17789700  0.36005400  1
  F  F14  1  0.75469600  0.13385300  0.46873600  1
  F  F15  1  0.21929500  0.03906500  0.69652800  1
  F  F16  1  0.23049200  0.38342800  0.02577600  1
  F  F17  1  0.79100400  0.33406000  0.14285700  1
  F  F18  1  0.25899100  0.17789700  0.86005400  1
  F  F19  1  0.74530400  0.13385300  0.96873600  1
  F  F20  1  0.73808000  0.45728200  0.30430200  1
  F  F21  1  0.26950800  0.38342800  0.52577600  1
  F  F22  1  0.70899600  0.33406000  0.64285700  1
  F  F23  1  0.23808000  0.54271800  0.19569800  1
  F  F24  1  0.76192000  0.45728200  0.80430200  1
  F  F25  1  0.29100400  0.66594000  0.35714300  1
  F  F26  1  0.73049200  0.61657200  0.47422400  1
  F  F27  1  0.26192000  0.54271800  0.69569800  1
  F  F28  1  0.25469600  0.86614700  0.03126400  1
  F  F29  1  0.74100900  0.82210300  0.13994600  1
  F  F30  1  0.20899600  0.66594000  0.85714300  1
  F  F31  1  0.76950800  0.61657200  0.97422400  1
  F  F32  1  0.78070500  0.96093500  0.30347200  1
  F  F33  1  0.24530400  0.86614700  0.53126400  1
  F  F34  1  0.75899100  0.82210300  0.63994600  1
  F  F35  1  0.71929500  0.96093500  0.80347200  1
