# generated using pymatgen
data_Li4Mn2Nb3Cr3O16
_symmetry_space_group_name_H-M   'P 1'
_cell_length_a   6.09296203
_cell_length_b   6.09296203
_cell_length_c   10.04940386
_cell_angle_alpha   89.87736306
_cell_angle_beta   89.87736306
_cell_angle_gamma   60.53571517
_symmetry_Int_Tables_number   1
_chemical_formula_structural   Li4Mn2Nb3Cr3O16
_chemical_formula_sum   'Li4 Mn2 Nb3 Cr3 O16'
_cell_volume   324.82222538
_cell_formula_units_Z   1
loop_
 _symmetry_equiv_pos_site_id
 _symmetry_equiv_pos_as_xyz
  1  'x, y, z'
loop_
 _atom_site_type_symbol
 _atom_site_label
 _atom_site_symmetry_multiplicity
 _atom_site_fract_x
 _atom_site_fract_y
 _atom_site_fract_z
 _atom_site_occupancy
  Li  Li0  1  0.33313300  0.33313300  0.90348900  1
  Li  Li1  1  0.99308100  0.99308100  0.00441600  1
  Li  Li2  1  0.99067900  0.99067900  0.49139400  1
  Li  Li3  1  0.66360300  0.66360300  0.37340800  1
  Mn  Mn4  1  0.34319300  0.34319300  0.48102500  1
  Mn  Mn5  1  0.67123200  0.67123200  0.01618900  1
  Nb  Nb6  1  0.17111300  0.17111300  0.21627000  1
  Nb  Nb7  1  0.33985500  0.83492500  0.71533900  1
  Nb  Nb8  1  0.83492500  0.33985500  0.71533900  1
  Cr  Cr9  1  0.16809700  0.66409800  0.21505600  1
  Cr  Cr10  1  0.66409800  0.16809700  0.21505600  1
  Cr  Cr11  1  0.83325900  0.83325900  0.71499400  1
  O  O12  1  0.15850800  0.69288900  0.60821100  1
  O  O13  1  0.48223500  0.48223500  0.32854300  1
  O  O14  1  0.33151700  0.33151700  0.10446500  1
  O  O15  1  0.99978200  0.99978200  0.31300800  1
  O  O16  1  0.00006000  0.00006000  0.81746400  1
  O  O17  1  0.69288900  0.15850800  0.60821100  1
  O  O18  1  0.02873900  0.47856300  0.33169800  1
  O  O19  1  0.47856300  0.02873900  0.33169800  1
  O  O20  1  0.84461600  0.84461600  0.10829000  1
  O  O21  1  0.15824900  0.15824900  0.60483200  1
  O  O22  1  0.50990400  0.96916600  0.82690300  1
  O  O23  1  0.96916600  0.50990400  0.82690300  1
  O  O24  1  0.66601200  0.66601200  0.60432700  1
  O  O25  1  0.31010800  0.84956400  0.10359400  1
  O  O26  1  0.51326000  0.51326000  0.82415700  1
  O  O27  1  0.84956400  0.31010800  0.10359400  1
