# generated using pymatgen
data_LiMn2P2H9O13
_symmetry_space_group_name_H-M   'P 1'
_cell_length_a   5.62939700
_cell_length_b   9.06396200
_cell_length_c   10.16317800
_cell_angle_alpha   90.00000000
_cell_angle_beta   90.00000000
_cell_angle_gamma   90.00000000
_symmetry_Int_Tables_number   1
_chemical_formula_structural   LiMn2P2H9O13
_chemical_formula_sum   'Li2 Mn4 P4 H18 O26'
_cell_volume   518.57250370
_cell_formula_units_Z   2
loop_
 _symmetry_equiv_pos_site_id
 _symmetry_equiv_pos_as_xyz
  1  'x, y, z'
loop_
 _atom_site_type_symbol
 _atom_site_label
 _atom_site_symmetry_multiplicity
 _atom_site_fract_x
 _atom_site_fract_y
 _atom_site_fract_z
 _atom_site_occupancy
  Li  Li0  1  0.12801200  0.00000000  0.00000000  1
  Li  Li1  1  0.12801200  0.50000000  0.50000000  1
  Mn  Mn2  1  0.05152200  0.15185300  0.60420000  1
  Mn  Mn3  1  0.05152200  0.34814700  0.10420000  1
  Mn  Mn4  1  0.05152200  0.65185300  0.89580000  1
  Mn  Mn5  1  0.05152200  0.84814700  0.39580000  1
  P  P6  1  0.78507700  0.14932900  0.31964500  1
  P  P7  1  0.78507700  0.35067100  0.81964500  1
  P  P8  1  0.78507700  0.64932900  0.18035500  1
  P  P9  1  0.78507700  0.85067100  0.68035500  1
  H  H10  1  0.38355600  0.00000000  0.50000000  1
  H  H11  1  0.35983400  0.98030200  0.75123200  1
  H  H12  1  0.39318000  0.14997100  0.78868300  1
  H  H13  1  0.43844900  0.19342900  0.13118500  1
  H  H14  1  0.43994700  0.24238800  0.97775500  1
  H  H15  1  0.43994700  0.25761200  0.47775500  1
  H  H16  1  0.43844900  0.30657100  0.63118500  1
  H  H17  1  0.39318000  0.35002900  0.28868300  1
  H  H18  1  0.35983400  0.51969800  0.25123200  1
  H  H19  1  0.38355600  0.50000000  0.00000000  1
  H  H20  1  0.35983400  0.48030200  0.74876800  1
  H  H21  1  0.39318000  0.64997100  0.71131700  1
  H  H22  1  0.43844900  0.69342900  0.36881500  1
  H  H23  1  0.43994700  0.74238800  0.52224500  1
  H  H24  1  0.43994700  0.75761200  0.02224500  1
  H  H25  1  0.43844900  0.80657100  0.86881500  1
  H  H26  1  0.39318000  0.85002900  0.21131700  1
  H  H27  1  0.35983400  0.01969800  0.24876800  1
  O  O28  1  0.20933300  0.00000000  0.50000000  1
  O  O29  1  0.79460600  0.02058600  0.65534400  1
  O  O30  1  0.27183700  0.06983000  0.78094000  1
  O  O31  1  0.52231900  0.18286900  0.28154300  1
  O  O32  1  0.95261000  0.17980400  0.20003800  1
  O  O33  1  0.85498700  0.23912500  0.44128200  1
  O  O34  1  0.33602600  0.20538000  0.04884000  1
  O  O35  1  0.33602600  0.29462000  0.54884000  1
  O  O36  1  0.85498700  0.26087500  0.94128200  1
  O  O37  1  0.95261000  0.32019600  0.70003800  1
  O  O38  1  0.52231900  0.31713100  0.78154300  1
  O  O39  1  0.27183700  0.43017000  0.28094000  1
  O  O40  1  0.79460600  0.47941400  0.15534400  1
  O  O41  1  0.20933300  0.50000000  0.00000000  1
  O  O42  1  0.79460600  0.52058600  0.84465600  1
  O  O43  1  0.27183700  0.56983000  0.71906000  1
  O  O44  1  0.52231900  0.68286900  0.21845700  1
  O  O45  1  0.95261000  0.67980400  0.29996200  1
  O  O46  1  0.85498700  0.73912500  0.05871800  1
  O  O47  1  0.33602600  0.70538000  0.45116000  1
  O  O48  1  0.33602600  0.79462000  0.95116000  1
  O  O49  1  0.85498700  0.76087500  0.55871800  1
  O  O50  1  0.95261000  0.82019600  0.79996200  1
  O  O51  1  0.52231900  0.81713100  0.71845700  1
  O  O52  1  0.27183700  0.93017000  0.21906000  1
  O  O53  1  0.79460600  0.97941400  0.34465600  1
