# generated using pymatgen
data_Li2Mn3(BO3)3
_symmetry_space_group_name_H-M   'P 1'
_cell_length_a   6.34438800
_cell_length_b   8.85077894
_cell_length_c   14.26943679
_cell_angle_alpha   89.06306758
_cell_angle_beta   88.81226347
_cell_angle_gamma   69.72694921
_symmetry_Int_Tables_number   1
_chemical_formula_structural   Li2Mn3(BO3)3
_chemical_formula_sum   'Li8 Mn12 B12 O36'
_cell_volume   751.43410176
_cell_formula_units_Z   4
loop_
 _symmetry_equiv_pos_site_id
 _symmetry_equiv_pos_as_xyz
  1  'x, y, z'
loop_
 _atom_site_type_symbol
 _atom_site_label
 _atom_site_symmetry_multiplicity
 _atom_site_fract_x
 _atom_site_fract_y
 _atom_site_fract_z
 _atom_site_occupancy
  Li  Li0  1  0.82389000  0.86751800  0.14641600  1
  Li  Li1  1  0.85881200  0.79066800  0.49170900  1
  Li  Li2  1  0.83728900  0.84028100  0.85998700  1
  Li  Li3  1  0.30555900  0.87100400  0.15272400  1
  Li  Li4  1  0.57526600  0.34350500  0.36128900  1
  Li  Li5  1  0.56242500  0.37424500  0.65113200  1
  Li  Li6  1  0.06592500  0.36892200  0.64943600  1
  Li  Li7  1  0.09486100  0.28448400  0.99086800  1
  Mn  Mn8  1  0.92347000  0.13775400  0.50098600  1
  Mn  Mn9  1  0.66811500  0.67515800  0.32030100  1
  Mn  Mn10  1  0.90857700  0.17602700  0.81056600  1
  Mn  Mn11  1  0.89411900  0.20830000  0.18637300  1
  Mn  Mn12  1  0.69143100  0.62616200  0.00157100  1
  Mn  Mn13  1  0.66079000  0.69646000  0.67878700  1
  Mn  Mn14  1  0.16673000  0.69683400  0.67662900  1
  Mn  Mn15  1  0.19572100  0.63340300  0.99821700  1
  Mn  Mn16  1  0.40439600  0.19263000  0.16907900  1
  Mn  Mn17  1  0.41090700  0.16148000  0.82600700  1
  Mn  Mn18  1  0.16764400  0.66886300  0.31975200  1
  Mn  Mn19  1  0.41893900  0.13014300  0.50050000  1
  B  B20  1  0.75572400  0.99982600  0.33094500  1
  B  B21  1  0.98566900  0.50716300  0.16344000  1
  B  B22  1  0.00122400  0.49857000  0.83195900  1
  B  B23  1  0.50325200  0.98712200  0.00627300  1
  B  B24  1  0.75282600  0.49899900  0.50312300  1
  B  B25  1  0.50722900  0.50032600  0.17042600  1
  B  B26  1  0.51925800  0.49331800  0.83138300  1
  B  B27  1  0.23554700  0.00115100  0.32707300  1
  B  B28  1  0.75382700  0.00395000  0.66488800  1
  B  B29  1  0.99364500  0.00406300  0.99948800  1
  B  B30  1  0.25134700  0.49618300  0.50336500  1
  B  B31  1  0.23830800  0.01053200  0.66958400  1
  O  O32  1  0.83513600  0.85242500  0.28839900  1
  O  O33  1  0.93426400  0.63852600  0.77896300  1
  O  O34  1  0.99144700  0.52963700  0.25686700  1
  O  O35  1  0.91199000  0.63811900  0.10109200  1
  O  O36  1  0.84136900  0.85149000  0.62634100  1
  O  O37  1  0.00652900  0.50452200  0.92909000  1
  O  O38  1  0.58877900  0.85182500  0.95059900  1
  O  O39  1  0.69676100  0.64741600  0.46061000  1
  O  O40  1  0.93638900  0.14761600  0.94939600  1
  O  O41  1  0.76665900  0.48537300  0.60061700  1
  O  O42  1  0.51638500  0.97195300  0.10370400  1
  O  O43  1  0.79437200  0.36205000  0.45025900  1
  O  O44  1  0.60273800  0.34457100  0.13282800  1
  O  O45  1  0.69193300  0.14244500  0.27633900  1
  O  O46  1  0.45024200  0.60710700  0.76272200  1
  O  O47  1  0.42663900  0.63102100  0.10980900  1
  O  O48  1  0.34489500  0.85816800  0.63762400  1
  O  O49  1  0.33092800  0.84549200  0.29521900  1
  O  O50  1  0.59625000  0.33123000  0.80290600  1
  O  O51  1  0.51107800  0.53009600  0.92516900  1
  O  O52  1  0.49868400  0.51817300  0.26645300  1
  O  O53  1  0.74442800  0.02008600  0.76289800  1
  O  O54  1  0.67786700  0.13973800  0.60781100  1
  O  O55  1  0.73275200  0.01267700  0.42736000  1
  O  O56  1  0.33556200  0.35779900  0.45102900  1
  O  O57  1  0.00027500  0.00508200  0.09827300  1
  O  O58  1  0.25806400  0.48487900  0.60122600  1
  O  O59  1  0.16157600  0.64452900  0.46056900  1
  O  O60  1  0.40428900  0.13774600  0.96721200  1
  O  O61  1  0.04236600  0.86050900  0.95368300  1
  O  O62  1  0.21052200  0.03801600  0.42051100  1
  O  O63  1  0.16572600  0.14166100  0.60851800  1
  O  O64  1  0.06802500  0.34768700  0.78942700  1
  O  O65  1  0.16837100  0.12515300  0.25933300  1
  O  O66  1  0.05422900  0.34973200  0.12569000  1
  O  O67  1  0.20336100  0.03321800  0.76713100  1
