# generated using pymatgen
data_Li4V3P8O29
_symmetry_space_group_name_H-M   'P 1'
_cell_length_a   9.74126200
_cell_length_b   9.78583157
_cell_length_c   14.16296821
_cell_angle_alpha   89.96979408
_cell_angle_beta   90.09264521
_cell_angle_gamma   119.61965835
_symmetry_Int_Tables_number   1
_chemical_formula_structural   Li4V3P8O29
_chemical_formula_sum   'Li8 V6 P16 O58'
_cell_volume   1173.67816212
_cell_formula_units_Z   2
loop_
 _symmetry_equiv_pos_site_id
 _symmetry_equiv_pos_as_xyz
  1  'x, y, z'
loop_
 _atom_site_type_symbol
 _atom_site_label
 _atom_site_symmetry_multiplicity
 _atom_site_fract_x
 _atom_site_fract_y
 _atom_site_fract_z
 _atom_site_occupancy
  Li  Li0  1  0.77634200  0.08360100  0.05892800  1
  Li  Li1  1  0.33016300  0.09524500  0.55524700  1
  Li  Li2  1  0.90948500  0.67840900  0.05935100  1
  Li  Li3  1  0.76509300  0.66582800  0.55625700  1
  Li  Li4  1  0.09054900  0.31841300  0.94458400  1
  Li  Li5  1  0.67255000  0.90874400  0.44040100  1
  Li  Li6  1  0.22133200  0.91731400  0.94279100  1
  Li  Li7  1  0.03716000  0.05403200  0.49186500  1
  V  V8  1  0.43028200  0.43261900  0.24724000  1
  V  V9  1  0.56548200  0.56522700  0.75487000  1
  V  V10  1  0.99598300  0.43144100  0.73906400  1
  V  V11  1  0.00395400  0.56595600  0.26085300  1
  V  V12  1  0.56600900  0.00007900  0.24761400  1
  V  V13  1  0.43305100  0.99993100  0.75118600  1
  P  P14  1  0.77389900  0.09168300  0.83830900  1
  P  P15  1  0.91488700  0.21923400  0.34181400  1
  P  P16  1  0.31223000  0.08946000  0.34014700  1
  P  P17  1  0.67369000  0.33937500  0.13272500  1
  P  P18  1  0.66215400  0.33622400  0.62873000  1
  P  P19  1  0.31462700  0.23036600  0.84474800  1
  P  P20  1  0.22791000  0.30826500  0.65908900  1
  P  P21  1  0.91303900  0.67830900  0.84218600  1
  P  P22  1  0.08656900  0.31874800  0.15934800  1
  P  P23  1  0.76842100  0.68511000  0.34184500  1
  P  P24  1  0.68517900  0.76974600  0.15784900  1
  P  P25  1  0.34006200  0.66643000  0.37052100  1
  P  P26  1  0.32418900  0.66138500  0.86715300  1
  P  P27  1  0.68448800  0.90873100  0.65859800  1
  P  P28  1  0.08379800  0.77771200  0.65988000  1
  P  P29  1  0.22462300  0.90602500  0.16135900  1
  O  O30  1  0.76955700  0.97758800  0.56846300  1
  O  O31  1  0.74083500  0.08352100  0.33637700  1
  O  O32  1  0.99987000  0.24639900  0.06917200  1
  O  O33  1  0.92057600  0.25928400  0.83162300  1
  O  O34  1  0.62012400  0.09955100  0.81788200  1
  O  O35  1  0.67132300  0.18550900  0.16802900  1
  O  O36  1  0.46709800  0.08634500  0.32994600  1
  O  O37  1  0.23028100  0.98256300  0.06979400  1
  O  O38  1  0.33718100  0.08422700  0.84295400  1
  O  O39  1  0.81063500  0.32959300  0.67316300  1
  O  O40  1  0.91960000  0.38064300  0.33312200  1
  O  O41  1  0.50990300  0.18908200  0.66449500  1
  O  O42  1  0.67999000  0.35351000  0.02807600  1
  O  O43  1  0.67541300  0.35312700  0.52423800  1
  O  O44  1  0.52698700  0.34172100  0.17815800  1
  O  O45  1  0.90587400  0.52100300  0.81927300  1
  O  O46  1  0.82178500  0.48308700  0.17993200  1
  O  O47  1  0.34218400  0.25993600  0.32689700  1
  O  O48  1  0.20649600  0.20650400  0.75262400  1
  O  O49  1  0.21251300  0.20741200  0.57614400  1
  O  O50  1  0.23497800  0.24440900  0.92971500  1
  O  O51  1  0.47696800  0.38053000  0.82391000  1
  O  O52  1  0.67336100  0.48904300  0.67404900  1
  O  O53  1  0.25496400  0.34196800  0.16278200  1
  O  O54  1  0.61363000  0.52968300  0.32856800  1
  O  O55  1  0.91145000  0.65566000  0.33631300  1
  O  O56  1  0.99199000  0.20171400  0.24456000  1
  O  O57  1  0.99704500  0.19993100  0.42432400  1
  O  O58  1  0.98970900  0.78506100  0.57934100  1
  O  O59  1  0.08928600  0.34494700  0.66340500  1
  O  O60  1  0.38606100  0.46231900  0.67001900  1
  O  O61  1  0.74456700  0.65618500  0.83527500  1
  O  O62  1  0.33260700  0.51855000  0.32102800  1
  O  O63  1  0.52484200  0.61917000  0.17528100  1
  O  O64  1  0.77412800  0.76123600  0.07569600  1
  O  O65  1  0.77404000  0.77059100  0.43147300  1
  O  O66  1  0.78831600  0.79661300  0.25435500  1
  O  O67  1  0.65747200  0.73734900  0.66795200  1
  O  O68  1  0.17808400  0.51542900  0.82185700  1
  O  O69  1  0.09388100  0.47678500  0.18140700  1
  O  O70  1  0.47209600  0.65818700  0.82039400  1
  O  O71  1  0.32403100  0.65144800  0.97181800  1
  O  O72  1  0.33319800  0.65700900  0.47494000  1
  O  O73  1  0.49155800  0.81366000  0.33324400  1
  O  O74  1  0.08376000  0.61847100  0.66909500  1
  O  O75  1  0.18965300  0.67050000  0.32678600  1
  O  O76  1  0.66261300  0.91618500  0.15714000  1
  O  O77  1  0.79333200  0.99882300  0.74982100  1
  O  O78  1  0.76740600  0.01651900  0.93047100  1
  O  O79  1  0.52843400  0.90886100  0.67189100  1
  O  O80  1  0.32694700  0.81429200  0.83051900  1
  O  O81  1  0.37862900  0.89950100  0.18103200  1
  O  O82  1  0.07934300  0.73761400  0.16738700  1
  O  O83  1  0.99638700  0.74980300  0.93325400  1
  O  O84  1  0.01224400  0.79820000  0.75875300  1
  O  O85  1  0.25595700  0.91659000  0.66081900  1
  O  O86  1  0.22409400  0.02300100  0.43018900  1
  O  O87  1  0.20285400  0.99632900  0.25012200  1
