# generated using pymatgen
data_Li5Mn6(BO3)6
_symmetry_space_group_name_H-M   'P 1'
_cell_length_a   8.28421500
_cell_length_b   8.80218483
_cell_length_c   12.64850327
_cell_angle_alpha   70.17369563
_cell_angle_beta   71.24275313
_cell_angle_gamma   62.20502147
_symmetry_Int_Tables_number   1
_chemical_formula_structural   Li5Mn6(BO3)6
_chemical_formula_sum   'Li10 Mn12 B12 O36'
_cell_volume   752.59935309
_cell_formula_units_Z   2
loop_
 _symmetry_equiv_pos_site_id
 _symmetry_equiv_pos_as_xyz
  1  'x, y, z'
loop_
 _atom_site_type_symbol
 _atom_site_label
 _atom_site_symmetry_multiplicity
 _atom_site_fract_x
 _atom_site_fract_y
 _atom_site_fract_z
 _atom_site_occupancy
  Li  Li0  1  0.29352200  0.40960800  0.30715300  1
  Li  Li1  1  0.30149500  0.16003200  0.55923800  1
  Li  Li2  1  0.97726000  0.10277500  0.20041100  1
  Li  Li3  1  0.29249200  0.92516000  0.79952100  1
  Li  Li4  1  0.71382400  0.61658700  0.36782600  1
  Li  Li5  1  0.72625700  0.11462900  0.86614400  1
  Li  Li6  1  0.70963300  0.86382100  0.12003000  1
  Li  Li7  1  0.98027000  0.35327300  0.94811600  1
  Li  Li8  1  0.99278400  0.59175100  0.70318900  1
  Li  Li9  1  0.98012800  0.85454900  0.44822200  1
  Mn  Mn10  1  0.99848100  0.23043700  0.41208100  1
  Mn  Mn11  1  0.01548700  0.47578400  0.16018800  1
  Mn  Mn12  1  0.35395700  0.99435300  0.00144200  1
  Mn  Mn13  1  0.62066400  0.27489200  0.09132700  1
  Mn  Mn14  1  0.61810100  0.02318000  0.34028100  1
  Mn  Mn15  1  0.00556600  0.97531500  0.65625800  1
  Mn  Mn16  1  0.02174200  0.72696600  0.91350100  1
  Mn  Mn17  1  0.35453600  0.75299700  0.24979200  1
  Mn  Mn18  1  0.36418400  0.50931400  0.50151000  1
  Mn  Mn19  1  0.38758600  0.25872000  0.75085100  1
  Mn  Mn20  1  0.61538800  0.53013500  0.84248000  1
  Mn  Mn21  1  0.64765100  0.74556600  0.58355100  1
  B  B22  1  0.32763900  0.12422300  0.20616300  1
  B  B23  1  0.00853800  0.25079500  0.75467000  1
  B  B24  1  0.01153100  0.50195500  0.49673900  1
  B  B25  1  0.33892900  0.37520600  0.94922500  1
  B  B26  1  0.66042600  0.11405100  0.54745500  1
  B  B27  1  0.32663800  0.87639400  0.45999800  1
  B  B28  1  0.33981500  0.62067100  0.71648100  1
  B  B29  1  0.66424600  0.37701200  0.29135500  1
  B  B30  1  0.67864500  0.62334900  0.03347200  1
  B  B31  1  0.98769800  0.01114800  0.99797700  1
  B  B32  1  0.67334400  0.86899900  0.79150500  1
  B  B33  1  0.98783600  0.75331200  0.25560400  1
  O  O34  1  0.24990900  0.04022100  0.17370000  1
  O  O35  1  0.22347300  0.50243100  0.00805700  1
  O  O36  1  0.21534000  0.02098100  0.50962300  1
  O  O37  1  0.21595900  0.26231300  0.26112700  1
  O  O38  1  0.17711000  0.65811700  0.24055100  1
  O  O39  1  0.20441500  0.18366100  0.72238200  1
  O  O40  1  0.20392700  0.40645800  0.47472200  1
  O  O41  1  0.52039700  0.06893300  0.18315900  1
  O  O42  1  0.26831000  0.28792600  0.91159900  1
  O  O43  1  0.58212600  0.02745400  0.52023800  1
  O  O44  1  0.24648900  0.79227800  0.43061900  1
  O  O45  1  0.57455000  0.29877700  0.26440900  1
  O  O46  1  0.26934400  0.52563000  0.68801400  1
  O  O47  1  0.61019900  0.53505400  0.99646100  1
  O  O48  1  0.54116000  0.25764100  0.59860200  1
  O  O49  1  0.22156300  0.77016800  0.75696100  1
  O  O50  1  0.55812100  0.76312800  0.08473500  1
  O  O51  1  0.56148300  0.02473700  0.83120100  1
  O  O52  1  0.55794600  0.52155400  0.34115000  1
  O  O53  1  0.91133000  0.15250000  0.05085000  1
  O  O54  1  0.17642200  0.93770600  0.95647100  1
  O  O55  1  0.85037900  0.06452900  0.52291900  1
  O  O56  1  0.53286900  0.32735500  0.92237100  1
  O  O57  1  0.52037800  0.81292100  0.43974900  1
  O  O58  1  0.53261700  0.55831300  0.70393000  1
  O  O59  1  0.85637200  0.31287300  0.26937200  1
  O  O60  1  0.86867900  0.56427500  0.01911100  1
  O  O61  1  0.87391900  0.70011000  0.22830300  1
  O  O62  1  0.91543100  0.16416500  0.74420200  1
  O  O63  1  0.89439900  0.46160100  0.46535400  1
  O  O64  1  0.58402800  0.78215800  0.77261400  1
  O  O65  1  0.90649300  0.90403500  0.30067000  1
  O  O66  1  0.91108500  0.40218800  0.79964000  1
  O  O67  1  0.93661100  0.64321300  0.55072200  1
  O  O68  1  0.86340600  0.80605100  0.77273600  1
  O  O69  1  0.87108900  0.94655600  0.98490300  1
