# generated using pymatgen
data_Li5V3P8O29
_symmetry_space_group_name_H-M   'P 1'
_cell_length_a   9.80488506
_cell_length_b   9.80488506
_cell_length_c   13.91527978
_cell_angle_alpha   89.93020332
_cell_angle_beta   89.93020332
_cell_angle_gamma   60.08389681
_symmetry_Int_Tables_number   1
_chemical_formula_structural   Li5V3P8O29
_chemical_formula_sum   'Li10 V6 P16 O58'
_cell_volume   1159.50784088
_cell_formula_units_Z   2
loop_
 _symmetry_equiv_pos_site_id
 _symmetry_equiv_pos_as_xyz
  1  'x, y, z'
loop_
 _atom_site_type_symbol
 _atom_site_label
 _atom_site_symmetry_multiplicity
 _atom_site_fract_x
 _atom_site_fract_y
 _atom_site_fract_z
 _atom_site_occupancy
  Li  Li0  1  0.09681200  0.67683000  0.19295800  1
  Li  Li1  1  0.67688500  0.22869300  0.19185600  1
  Li  Li2  1  0.67529000  0.09510500  0.68738200  1
  Li  Li3  1  0.09656800  0.22682600  0.68739400  1
  Li  Li4  1  0.77317400  0.90343200  0.31260600  1
  Li  Li5  1  0.22815800  0.08976300  0.19094200  1
  Li  Li6  1  0.91023700  0.77184200  0.80905800  1
  Li  Li7  1  0.32317000  0.90318800  0.80704200  1
  Li  Li8  1  0.90489500  0.32471000  0.31261800  1
  Li  Li9  1  0.77130700  0.32311500  0.80814400  1
  V  V10  1  0.56633500  0.99994400  0.49802700  1
  V  V11  1  0.43180600  0.99964400  0.00060600  1
  V  V12  1  0.00035600  0.56819400  0.99939400  1
  V  V13  1  0.00005600  0.43366500  0.50197300  1
  V  V14  1  0.42710100  0.57289900  0.50000000  1
  V  V15  1  0.56277100  0.43722900  0.00000000  1
  P  P16  1  0.22990700  0.68617800  0.90570900  1
  P  P17  1  0.08830200  0.68137000  0.40898600  1
  P  P18  1  0.68013700  0.23344900  0.40757200  1
  P  P19  1  0.33623200  0.33295800  0.62290700  1
  P  P20  1  0.33252900  0.33380100  0.12292500  1
  P  P21  1  0.67968000  0.08925400  0.90789100  1
  P  P22  1  0.76828300  0.91244500  0.09191200  1
  P  P23  1  0.08755500  0.23171700  0.90808800  1
  P  P24  1  0.91181500  0.77049200  0.59281000  1
  P  P25  1  0.22950800  0.08818500  0.40719000  1
  P  P26  1  0.31863000  0.91169800  0.59101400  1
  P  P27  1  0.66704200  0.66376800  0.37709300  1
  P  P28  1  0.66619900  0.66747100  0.87707500  1
  P  P29  1  0.31382200  0.77009300  0.09429100  1
  P  P30  1  0.91074600  0.32032000  0.09210900  1
  P  P31  1  0.76655100  0.31986300  0.59242800  1
  O  O32  1  0.23512600  0.75749100  0.18112800  1
  O  O33  1  0.25513400  0.66163200  0.41374300  1
  O  O34  1  0.99244300  0.76298900  0.68417000  1
  O  O35  1  0.08462200  0.66364300  0.90840200  1
  O  O36  1  0.38196700  0.52342000  0.92681200  1
  O  O37  1  0.33480700  0.48110700  0.57517900  1
  O  O38  1  0.52170400  0.38354000  0.42550500  1
  O  O39  1  0.75634700  0.24086500  0.68215300  1
  O  O40  1  0.66354400  0.25562200  0.91024800  1
  O  O41  1  0.18807400  0.48719700  0.08276100  1
  O  O42  1  0.09919100  0.52192500  0.42501400  1
  O  O43  1  0.48804300  0.32860600  0.07962500  1
  O  O44  1  0.33672500  0.33452500  0.72992400  1
  O  O45  1  0.34019400  0.33191000  0.23001800  1
  O  O46  1  0.48915700  0.18548800  0.58288500  1
  O  O47  1  0.09840500  0.38139600  0.92556600  1
  O  O48  1  0.18710700  0.32763800  0.58414200  1
  O  O49  1  0.66459900  0.08435600  0.40694700  1
  O  O50  1  0.79058100  0.00064900  0.99991400  1
  O  O51  1  0.75809100  0.00084600  0.18222800  1
  O  O52  1  0.75949200  0.00205400  0.81760100  1
  O  O53  1  0.52043400  0.10036600  0.92592900  1
  O  O54  1  0.32614900  0.18703200  0.08256400  1
  O  O55  1  0.74410600  0.91776900  0.58782300  1
  O  O56  1  0.38099700  0.09796300  0.42651200  1
  O  O57  1  0.08223100  0.25589400  0.41217700  1
  O  O58  1  0.99843300  0.79246100  0.50020700  1
  O  O59  1  0.00120400  0.76110800  0.31868800  1
  O  O60  1  0.99794600  0.24050800  0.18239900  1
  O  O61  1  0.91698400  0.74671500  0.09072400  1
  O  O62  1  0.61860400  0.90159500  0.07443400  1
  O  O63  1  0.25328500  0.08301600  0.90927600  1
  O  O64  1  0.67236200  0.81289300  0.41585800  1
  O  O65  1  0.47807500  0.90080900  0.57498600  1
  O  O66  1  0.23889200  0.99879600  0.68131200  1
  O  O67  1  0.23701100  0.00755700  0.31583000  1
  O  O68  1  0.20753900  0.00156700  0.49979300  1
  O  O69  1  0.33635700  0.91537800  0.09159800  1
  O  O70  1  0.81296800  0.67385100  0.91743600  1
  O  O71  1  0.90203700  0.61900300  0.57348800  1
  O  O72  1  0.51280300  0.81192600  0.91723900  1
  O  O73  1  0.66809000  0.65980600  0.76998200  1
  O  O74  1  0.66547500  0.66327500  0.27007600  1
  O  O75  1  0.51889300  0.66519300  0.42482100  1
  O  O76  1  0.89963400  0.47956600  0.07407100  1
  O  O77  1  0.81451200  0.51084300  0.41711500  1
  O  O78  1  0.33836800  0.74486600  0.58625700  1
  O  O79  1  0.20859000  0.79141000  0.00000000  1
  O  O80  1  0.24250900  0.76487400  0.81887200  1
  O  O81  1  0.47658000  0.61803300  0.07318800  1
  O  O82  1  0.67139400  0.51195700  0.92037500  1
  O  O83  1  0.61646000  0.47829600  0.57449500  1
  O  O84  1  0.91564400  0.33540100  0.59305300  1
  O  O85  1  0.99915400  0.24190900  0.81777200  1
  O  O86  1  0.99935100  0.20941900  0.00008600  1
  O  O87  1  0.74437800  0.33645600  0.08975200  1
  O  O88  1  0.75913500  0.24365300  0.31784700  1
  O  O89  1  0.79054700  0.20945300  0.50000000  1
