# generated using pymatgen
data_LiVSiO4
_symmetry_space_group_name_H-M   'P 1'
_cell_length_a   10.25953655
_cell_length_b   10.25953655
_cell_length_c   16.50960116
_cell_angle_alpha   82.14979853
_cell_angle_beta   82.14979853
_cell_angle_gamma   58.74946838
_symmetry_Int_Tables_number   1
_chemical_formula_structural   LiVSiO4
_chemical_formula_sum   'Li16 V16 Si16 O64'
_cell_volume   1467.26969394
_cell_formula_units_Z   16
loop_
 _symmetry_equiv_pos_site_id
 _symmetry_equiv_pos_as_xyz
  1  'x, y, z'
loop_
 _atom_site_type_symbol
 _atom_site_label
 _atom_site_symmetry_multiplicity
 _atom_site_fract_x
 _atom_site_fract_y
 _atom_site_fract_z
 _atom_site_occupancy
  Li  Li0  1  0.20284700  0.80893100  0.00241700  1
  Li  Li1  1  0.80893100  0.20284700  0.50241700  1
  Li  Li2  1  0.70294500  0.57593200  0.25339400  1
  Li  Li3  1  0.26108900  0.07565400  0.25079300  1
  Li  Li4  1  0.14077600  0.30994800  0.00123600  1
  Li  Li5  1  0.57593200  0.70294500  0.75339400  1
  Li  Li6  1  0.70500100  0.80784800  0.00312900  1
  Li  Li7  1  0.07565400  0.26108900  0.75079300  1
  Li  Li8  1  0.30994800  0.14077600  0.50123600  1
  Li  Li9  1  0.80784800  0.70500100  0.50312900  1
  Li  Li10  1  0.20446800  0.56788600  0.25204600  1
  Li  Li11  1  0.76199900  0.08186600  0.25382500  1
  Li  Li12  1  0.64023100  0.30923500  0.00230100  1
  Li  Li13  1  0.56788600  0.20446800  0.75204600  1
  Li  Li14  1  0.08186600  0.76199900  0.75382500  1
  Li  Li15  1  0.30923500  0.64023100  0.50230100  1
  V  V16  1  0.88106100  0.27044000  0.12960700  1
  V  V17  1  0.44622000  0.77174000  0.12962400  1
  V  V18  1  0.27044000  0.88106100  0.62960700  1
  V  V19  1  0.77174000  0.44622000  0.62962400  1
  V  V20  1  0.00410800  0.32166300  0.37950300  1
  V  V21  1  0.50750300  0.88235500  0.37939000  1
  V  V22  1  0.32166300  0.00410800  0.87950300  1
  V  V23  1  0.88235500  0.50750300  0.87939000  1
  V  V24  1  0.37887100  0.27341000  0.12880200  1
  V  V25  1  0.94671700  0.77024500  0.13149700  1
  V  V26  1  0.27341000  0.37887100  0.62880200  1
  V  V27  1  0.77024500  0.94671700  0.63149700  1
  V  V28  1  0.00840200  0.82212700  0.37984500  1
  V  V29  1  0.50270000  0.38370500  0.37995000  1
  V  V30  1  0.82212700  0.00840200  0.87984500  1
  V  V31  1  0.38370500  0.50270000  0.87995000  1
  Si  Si32  1  0.10129700  0.91642400  0.19044100  1
  Si  Si33  1  0.91642400  0.10129700  0.69044100  1
  Si  Si34  1  0.16746700  0.98052100  0.43990300  1
  Si  Si35  1  0.66581500  0.53789800  0.44107500  1
  Si  Si36  1  0.98052100  0.16746700  0.93990300  1
  Si  Si37  1  0.53789800  0.66581500  0.94107500  1
  Si  Si38  1  0.04132400  0.41861000  0.18869300  1
  Si  Si39  1  0.60267500  0.91976300  0.19033100  1
  Si  Si40  1  0.41861000  0.04132400  0.68869300  1
  Si  Si41  1  0.91976300  0.60267500  0.69033100  1
  Si  Si42  1  0.16493000  0.48023000  0.43974100  1
  Si  Si43  1  0.66711400  0.03911100  0.44183000  1
  Si  Si44  1  0.48023000  0.16493000  0.93974100  1
  Si  Si45  1  0.03911100  0.66711400  0.94183000  1
  Si  Si46  1  0.54353700  0.42014300  0.18877900  1
  Si  Si47  1  0.42014300  0.54353700  0.68877900  1
  O  O48  1  0.67089800  0.33563100  0.11263800  1
  O  O49  1  0.95033900  0.08731200  0.20260800  1
  O  O50  1  0.52446300  0.58621700  0.20032200  1
  O  O51  1  0.41779400  0.74763700  0.02025200  1
  O  O52  1  0.33563100  0.67089800  0.61263800  1
  O  O53  1  0.50596700  0.54767400  0.42446500  1
  O  O54  1  0.98403500  0.24214200  0.02140100  1
  O  O55  1  0.25562400  0.93012400  0.17851900  1
  O  O56  1  0.08731200  0.95033900  0.70260800  1
  O  O57  1  0.00231000  0.13797500  0.42455900  1
  O  O58  1  0.58621700  0.52446300  0.70032200  1
  O  O59  1  0.74763700  0.41779400  0.52025200  1
  O  O60  1  0.54767400  0.50596700  0.92446500  1
  O  O61  1  0.79056600  0.47002900  0.36116800  1
  O  O62  1  0.29289900  0.97014900  0.36305200  1
  O  O63  1  0.87659100  0.44045400  0.17161100  1
  O  O64  1  0.24214200  0.98403500  0.52140100  1
  O  O65  1  0.93012400  0.25562400  0.67851900  1
  O  O66  1  0.13797500  0.00231000  0.92455900  1
  O  O67  1  0.62843400  0.70987100  0.45524900  1
  O  O68  1  0.59348900  0.84055900  0.11222200  1
  O  O69  1  0.10712500  0.29823800  0.27020600  1
  O  O70  1  0.60490500  0.80801500  0.27278100  1
  O  O71  1  0.47002900  0.79056600  0.86116800  1
  O  O72  1  0.97014900  0.29289900  0.86305200  1
  O  O73  1  0.44045400  0.87659100  0.67161100  1
  O  O74  1  0.16894800  0.33989600  0.11128400  1
  O  O75  1  0.44837300  0.08932800  0.20103900  1
  O  O76  1  0.13259600  0.33753700  0.44979500  1
  O  O77  1  0.70987100  0.62843400  0.95524900  1
  O  O78  1  0.84055900  0.59348900  0.61222200  1
  O  O79  1  0.29823800  0.10712500  0.77020600  1
  O  O80  1  0.80801500  0.60490500  0.77278100  1
  O  O81  1  0.02365000  0.58313100  0.20214800  1
  O  O82  1  0.91976600  0.74512600  0.02187400  1
  O  O83  1  0.33989600  0.16894800  0.61128400  1
  O  O84  1  0.50901400  0.04715800  0.42350200  1
  O  O85  1  0.48051500  0.24477600  0.02000100  1
  O  O86  1  0.75597100  0.93488600  0.17727100  1
  O  O87  1  0.08932800  0.44837300  0.70103900  1
  O  O88  1  0.33753700  0.13259600  0.94979500  1
  O  O89  1  0.00206900  0.64046800  0.42558900  1
  O  O90  1  0.58313100  0.02365000  0.70214800  1
  O  O91  1  0.74512600  0.91976600  0.52187400  1
  O  O92  1  0.04715800  0.50901400  0.92350200  1
  O  O93  1  0.28880300  0.46687800  0.36126300  1
  O  O94  1  0.79605700  0.97215600  0.36361800  1
  O  O95  1  0.24477600  0.48051500  0.52000100  1
  O  O96  1  0.37964200  0.43970700  0.17179300  1
  O  O97  1  0.93488600  0.75597100  0.67727100  1
  O  O98  1  0.64046800  0.00206900  0.92558900  1
  O  O99  1  0.62678500  0.21228600  0.45548300  1
  O  O100  1  0.09056800  0.84315700  0.11012900  1
  O  O101  1  0.10232400  0.79718600  0.26870200  1
  O  O102  1  0.60769700  0.31033900  0.27380800  1
  O  O103  1  0.46687800  0.28880300  0.86126300  1
  O  O104  1  0.97215600  0.79605700  0.86361800  1
  O  O105  1  0.43970700  0.37964200  0.67179300  1
  O  O106  1  0.21228600  0.62678500  0.95548300  1
  O  O107  1  0.13953800  0.83530200  0.44900200  1
  O  O108  1  0.84315700  0.09056800  0.61012900  1
  O  O109  1  0.79718600  0.10232400  0.76870200  1
  O  O110  1  0.31033900  0.60769700  0.77380800  1
  O  O111  1  0.83530200  0.13953800  0.94900200  1
