# generated using pymatgen
data_LiMnPO4
_symmetry_space_group_name_H-M   'P 1'
_cell_length_a   5.39692300
_cell_length_b   6.30737100
_cell_length_c   9.05779600
_cell_angle_alpha   90.00000000
_cell_angle_beta   90.00000000
_cell_angle_gamma   90.00000000
_symmetry_Int_Tables_number   1
_chemical_formula_structural   LiMnPO4
_chemical_formula_sum   'Li4 Mn4 P4 O16'
_cell_volume   308.33095928
_cell_formula_units_Z   4
loop_
 _symmetry_equiv_pos_site_id
 _symmetry_equiv_pos_as_xyz
  1  'x, y, z'
loop_
 _atom_site_type_symbol
 _atom_site_label
 _atom_site_symmetry_multiplicity
 _atom_site_fract_x
 _atom_site_fract_y
 _atom_site_fract_z
 _atom_site_occupancy
  Li  Li0  1  0.25000000  0.18284200  0.99471300  1
  Li  Li1  1  0.75000000  0.31715800  0.49471300  1
  Li  Li2  1  0.25000000  0.68284200  0.50528700  1
  Li  Li3  1  0.75000000  0.81715800  0.00528700  1
  Mn  Mn4  1  0.75000000  0.98414700  0.71287900  1
  Mn  Mn5  1  0.25000000  0.51585300  0.21287900  1
  Mn  Mn6  1  0.75000000  0.48414700  0.78712100  1
  Mn  Mn7  1  0.25000000  0.01585300  0.28712100  1
  P  P8  1  0.25000000  0.21801600  0.59035400  1
  P  P9  1  0.75000000  0.28198400  0.09035400  1
  P  P10  1  0.25000000  0.71801600  0.90964600  1
  P  P11  1  0.75000000  0.78198400  0.40964600  1
  O  O12  1  0.25000000  0.98848000  0.53116200  1
  O  O13  1  0.75000000  0.12507400  0.95853400  1
  O  O14  1  0.98897300  0.24508700  0.18516600  1
  O  O15  1  0.51102700  0.24508700  0.18516600  1
  O  O16  1  0.01102700  0.25491300  0.68516600  1
  O  O17  1  0.48897300  0.25491300  0.68516600  1
  O  O18  1  0.25000000  0.37492600  0.45853400  1
  O  O19  1  0.75000000  0.51152000  0.03116200  1
  O  O20  1  0.25000000  0.48848000  0.96883800  1
  O  O21  1  0.75000000  0.62507400  0.54146600  1
  O  O22  1  0.51102700  0.74508700  0.31483400  1
  O  O23  1  0.98897300  0.74508700  0.31483400  1
  O  O24  1  0.01102700  0.75491300  0.81483400  1
  O  O25  1  0.48897300  0.75491300  0.81483400  1
  O  O26  1  0.25000000  0.87492600  0.04146600  1
  O  O27  1  0.75000000  0.01152000  0.46883800  1
