# generated using pymatgen
data_Li2Mn(Si2O5)2
_symmetry_space_group_name_H-M   'P 1'
_cell_length_a   10.02385100
_cell_length_b   7.11627600
_cell_length_c   14.97587079
_cell_angle_alpha   66.66399333
_cell_angle_beta   90.00000000
_cell_angle_gamma   90.00000000
_symmetry_Int_Tables_number   1
_chemical_formula_structural   Li2Mn(Si2O5)2
_chemical_formula_sum   'Li8 Mn4 Si16 O40'
_cell_volume   980.87944959
_cell_formula_units_Z   4
loop_
 _symmetry_equiv_pos_site_id
 _symmetry_equiv_pos_as_xyz
  1  'x, y, z'
loop_
 _atom_site_type_symbol
 _atom_site_label
 _atom_site_symmetry_multiplicity
 _atom_site_fract_x
 _atom_site_fract_y
 _atom_site_fract_z
 _atom_site_occupancy
  Li  Li0  1  0.83960700  0.96781000  0.41366400  1
  Li  Li1  1  0.08777600  0.54634500  0.75787600  1
  Li  Li2  1  0.58777600  0.45365500  0.74212400  1
  Li  Li3  1  0.33960700  0.03219000  0.08633600  1
  Li  Li4  1  0.66039300  0.96781000  0.91366400  1
  Li  Li5  1  0.41222400  0.54634500  0.25787600  1
  Li  Li6  1  0.91222400  0.45365500  0.24212400  1
  Li  Li7  1  0.16039300  0.03219000  0.58633600  1
  Mn  Mn8  1  0.86189900  0.79239500  0.65563400  1
  Mn  Mn9  1  0.36189900  0.20760500  0.84436600  1
  Mn  Mn10  1  0.63810100  0.79239500  0.15563400  1
  Mn  Mn11  1  0.13810100  0.20760500  0.34436600  1
  Si  Si12  1  0.72711600  0.64443000  0.86501000  1
  Si  Si13  1  0.44888500  0.67910700  0.83540400  1
  Si  Si14  1  0.02586200  0.09122900  0.16887700  1
  Si  Si15  1  0.26780200  0.78539300  0.46033600  1
  Si  Si16  1  0.76780200  0.21460700  0.03966400  1
  Si  Si17  1  0.52586200  0.90877100  0.33112300  1
  Si  Si18  1  0.77288400  0.64443000  0.36501000  1
  Si  Si19  1  0.05111500  0.67910700  0.33540400  1
  Si  Si20  1  0.94888500  0.32089300  0.66459600  1
  Si  Si21  1  0.22711600  0.35557000  0.63499000  1
  Si  Si22  1  0.47413800  0.09122900  0.66887700  1
  Si  Si23  1  0.23219800  0.78539300  0.96033600  1
  Si  Si24  1  0.73219800  0.21460700  0.53966400  1
  Si  Si25  1  0.97413800  0.90877100  0.83112300  1
  Si  Si26  1  0.55111500  0.32089300  0.16459600  1
  Si  Si27  1  0.27288400  0.35557000  0.13499000  1
  O  O28  1  0.54692400  0.15850700  0.27940800  1
  O  O29  1  0.69124600  0.27722000  0.12137800  1
  O  O30  1  0.18762400  0.96913800  0.47527100  1
  O  O31  1  0.98570400  0.18692800  0.24726800  1
  O  O32  1  0.41896500  0.27613600  0.10605000  1
  O  O33  1  0.71771100  0.64957300  0.75686600  1
  O  O34  1  0.17604700  0.17861000  0.12120200  1
  O  O35  1  0.42010400  0.85290600  0.42084800  1
  O  O36  1  0.77645800  0.41963600  0.93951200  1
  O  O37  1  0.92010400  0.14709400  0.07915200  1
  O  O38  1  0.67604700  0.82139000  0.37879800  1
  O  O39  1  0.96672000  0.55116600  0.65497900  1
  O  O40  1  0.46672000  0.44883400  0.84502100  1
  O  O41  1  0.27645800  0.58036400  0.56048800  1
  O  O42  1  0.91896500  0.72386400  0.39395000  1
  O  O43  1  0.48570400  0.81307200  0.25273200  1
  O  O44  1  0.68762400  0.03086200  0.02472900  1
  O  O45  1  0.19124600  0.72278000  0.37862200  1
  O  O46  1  0.04692400  0.84149300  0.22059200  1
  O  O47  1  0.21771100  0.35042700  0.74313400  1
  O  O48  1  0.78228900  0.64957300  0.25686600  1
  O  O49  1  0.95307600  0.15850700  0.77940800  1
  O  O50  1  0.80875400  0.27722000  0.62137800  1
  O  O51  1  0.31237600  0.96913800  0.97527100  1
  O  O52  1  0.51429600  0.18692800  0.74726800  1
  O  O53  1  0.08103500  0.27613600  0.60605000  1
  O  O54  1  0.72354200  0.41963600  0.43951200  1
  O  O55  1  0.53328000  0.55116600  0.15497900  1
  O  O56  1  0.03328000  0.44883400  0.34502100  1
  O  O57  1  0.32395300  0.17861000  0.62120200  1
  O  O58  1  0.07989600  0.85290600  0.92084800  1
  O  O59  1  0.22354200  0.58036400  0.06048800  1
  O  O60  1  0.57989600  0.14709400  0.57915200  1
  O  O61  1  0.82395300  0.82139000  0.87879800  1
  O  O62  1  0.28228900  0.35042700  0.24313400  1
  O  O63  1  0.58103500  0.72386400  0.89395000  1
  O  O64  1  0.01429600  0.81307200  0.75273200  1
  O  O65  1  0.81237600  0.03086200  0.52472900  1
  O  O66  1  0.30875400  0.72278000  0.87862200  1
  O  O67  1  0.45307600  0.84149300  0.72059200  1
