# generated using pymatgen
data_LiMnPO4
_symmetry_space_group_name_H-M   'P 1'
_cell_length_a   5.37781901
_cell_length_b   9.17202001
_cell_length_c   8.84537102
_cell_angle_alpha   90.00445950
_cell_angle_beta   89.99352805
_cell_angle_gamma   89.99938690
_symmetry_Int_Tables_number   1
_chemical_formula_structural   LiMnPO4
_chemical_formula_sum   'Li4 Mn4 P4 O16'
_cell_volume   436.30202167
_cell_formula_units_Z   4
loop_
 _symmetry_equiv_pos_site_id
 _symmetry_equiv_pos_as_xyz
  1  'x, y, z'
loop_
 _atom_site_type_symbol
 _atom_site_label
 _atom_site_symmetry_multiplicity
 _atom_site_fract_x
 _atom_site_fract_y
 _atom_site_fract_z
 _atom_site_occupancy
  Li  Li0  1  0.75003500  0.10634900  0.88681900  1
  Li  Li1  1  0.25003600  0.39362900  0.38668300  1
  Li  Li2  1  0.75000100  0.60635700  0.61318000  1
  Li  Li3  1  0.25000100  0.89365000  0.11325500  1
  Mn  Mn4  1  0.75001500  0.40046300  0.85893900  1
  Mn  Mn5  1  0.25006300  0.09948300  0.35898200  1
  Mn  Mn6  1  0.74993100  0.90047400  0.64101200  1
  Mn  Mn7  1  0.24992800  0.59949600  0.14094200  1
  P  P8  1  0.25000500  0.24863600  0.03151100  1
  P  P9  1  0.75001300  0.25136400  0.53140800  1
  P  P10  1  0.24999500  0.74863000  0.46850400  1
  P  P11  1  0.74998500  0.75139200  0.96859600  1
  O  O12  1  0.24999200  0.10341400  0.12243200  1
  O  O13  1  0.74998800  0.39654800  0.62237600  1
  O  O14  1  0.24998400  0.60342400  0.37756200  1
  O  O15  1  0.74995500  0.89656100  0.87762300  1
  O  O16  1  0.74998300  0.12111300  0.64510900  1
  O  O17  1  0.24999500  0.37888100  0.14526200  1
  O  O18  1  0.75002100  0.62111200  0.85492900  1
  O  O19  1  0.25003800  0.87886900  0.35476400  1
  O  O20  1  0.51396600  0.24573800  0.43142000  1
  O  O21  1  0.98610100  0.24573400  0.43142800  1
  O  O22  1  0.01393700  0.25427800  0.93158500  1
  O  O23  1  0.48610500  0.25427000  0.93158000  1
  O  O24  1  0.51390900  0.74577500  0.06859900  1
  O  O25  1  0.98605400  0.74581300  0.06857700  1
  O  O26  1  0.01392000  0.75428900  0.56846300  1
  O  O27  1  0.48604500  0.75425700  0.56845800  1
