# generated using pymatgen
data_Li7(CoO3)2
_symmetry_space_group_name_H-M   'P 1'
_cell_length_a   6.55240239
_cell_length_b   6.55240239
_cell_length_c   9.97988750
_cell_angle_alpha   74.85065008
_cell_angle_beta   74.85065008
_cell_angle_gamma   46.04631199
_symmetry_Int_Tables_number   1
_chemical_formula_structural   Li7(CoO3)2
_chemical_formula_sum   'Li14 Co4 O12'
_cell_volume   295.76364977
_cell_formula_units_Z   2
loop_
 _symmetry_equiv_pos_site_id
 _symmetry_equiv_pos_as_xyz
  1  'x, y, z'
loop_
 _atom_site_type_symbol
 _atom_site_label
 _atom_site_symmetry_multiplicity
 _atom_site_fract_x
 _atom_site_fract_y
 _atom_site_fract_z
 _atom_site_occupancy
  Li  Li0  1  0.32736800  0.54881900  0.16938200  1
  Li  Li1  1  0.43699100  0.22638800  0.40739800  1
  Li  Li2  1  0.54881900  0.32736800  0.66938200  1
  Li  Li3  1  0.82145500  0.72711600  0.29586500  1
  Li  Li4  1  0.22638800  0.43699100  0.90739800  1
  Li  Li5  1  0.27288400  0.17854500  0.20413500  1
  Li  Li6  1  0.72711600  0.82145500  0.79586500  1
  Li  Li7  1  0.77361200  0.56300900  0.09260200  1
  Li  Li8  1  0.17854500  0.27288400  0.70413500  1
  Li  Li9  1  0.45118100  0.67263200  0.33061800  1
  Li  Li10  1  0.56300900  0.77361200  0.59260200  1
  Li  Li11  1  0.95455100  0.04544900  0.25000000  1
  Li  Li12  1  0.67263200  0.45118100  0.83061800  1
  Li  Li13  1  0.04544900  0.95455100  0.75000000  1
  Co  Co14  1  0.82551400  0.98598800  0.03142700  1
  Co  Co15  1  0.98598800  0.82551400  0.53142700  1
  Co  Co16  1  0.01401200  0.17448600  0.46857300  1
  Co  Co17  1  0.17448600  0.01401200  0.96857300  1
  O  O18  1  0.14373100  0.65452100  0.36982700  1
  O  O19  1  0.62699800  0.14368600  0.19855300  1
  O  O20  1  0.65452100  0.14373100  0.86982700  1
  O  O21  1  0.05473800  0.60225700  0.08563400  1
  O  O22  1  0.14368600  0.62699800  0.69855300  1
  O  O23  1  0.39774300  0.94526200  0.41436600  1
  O  O24  1  0.60225700  0.05473800  0.58563400  1
  O  O25  1  0.85631400  0.37300200  0.30144700  1
  O  O26  1  0.94526200  0.39774300  0.91436600  1
  O  O27  1  0.34547900  0.85626900  0.13017300  1
  O  O28  1  0.37300200  0.85631400  0.80144700  1
  O  O29  1  0.85626900  0.34547900  0.63017300  1
