# generated using pymatgen
data_Li2MnSiO4
_symmetry_space_group_name_H-M   'P 1'
_cell_length_a   6.37948322
_cell_length_b   7.49313835
_cell_length_c   7.49248566
_cell_angle_alpha   94.72572319
_cell_angle_beta   90.10868329
_cell_angle_gamma   90.10566189
_symmetry_Int_Tables_number   1
_chemical_formula_structural   Li2MnSiO4
_chemical_formula_sum   'Li8 Mn4 Si4 O16'
_cell_volume   356.93950366
_cell_formula_units_Z   4
loop_
 _symmetry_equiv_pos_site_id
 _symmetry_equiv_pos_as_xyz
  1  'x, y, z'
loop_
 _atom_site_type_symbol
 _atom_site_label
 _atom_site_symmetry_multiplicity
 _atom_site_fract_x
 _atom_site_fract_y
 _atom_site_fract_z
 _atom_site_occupancy
  Li  Li0  1  0.25074900  0.40766800  0.09158100  1
  Li  Li1  1  0.25076700  0.90762300  0.59158100  1
  Li  Li2  1  0.75070900  0.84116000  0.15808300  1
  Li  Li3  1  0.75069600  0.34117300  0.65810500  1
  Li  Li4  1  0.49836000  0.57502500  0.42377600  1
  Li  Li5  1  0.49840300  0.07502400  0.92376500  1
  Li  Li6  1  0.99833800  0.67334900  0.82544600  1
  Li  Li7  1  0.99832500  0.17337100  0.32543400  1
  Mn  Mn8  1  0.24428500  0.33174900  0.66536600  1
  Mn  Mn9  1  0.74437000  0.91492200  0.58223900  1
  Mn  Mn10  1  0.24447200  0.83238200  0.16541000  1
  Mn  Mn11  1  0.74423300  0.41509300  0.08249700  1
  Si  Si12  1  0.99902100  0.08752700  0.91714600  1
  Si  Si13  1  0.99914800  0.58751500  0.41712800  1
  Si  Si14  1  0.49902300  0.66669600  0.83791100  1
  Si  Si15  1  0.49909200  0.16676100  0.33793800  1
  O  O16  1  0.99313000  0.89147600  0.00363300  1
  O  O17  1  0.99312300  0.39146500  0.50362200  1
  O  O18  1  0.49315000  0.25318100  0.14188900  1
  O  O19  1  0.49318400  0.75321600  0.64187500  1
  O  O20  1  0.21371000  0.59939600  0.29362800  1
  O  O21  1  0.21370800  0.09923800  0.79369500  1
  O  O22  1  0.71367700  0.54325000  0.84974000  1
  O  O23  1  0.71366100  0.04326000  0.34968200  1
  O  O24  1  0.28525700  0.54400000  0.86482100  1
  O  O25  1  0.28526600  0.04409900  0.36491400  1
  O  O26  1  0.78524400  0.61452200  0.29450100  1
  O  O27  1  0.78526000  0.11447000  0.79444000  1
  O  O28  1  0.50464600  0.82829600  0.00218500  1
  O  O29  1  0.50460100  0.32827200  0.50219500  1
  O  O30  1  0.00463200  0.25179800  0.07872900  1
  O  O31  1  0.00465400  0.75179600  0.57871800  1
