# generated using pymatgen
data_Li6Mn3Nb(PO4)6
_symmetry_space_group_name_H-M   'P 1'
_cell_length_a   8.87386938
_cell_length_b   8.78554286
_cell_length_c   8.84635604
_cell_angle_alpha   60.83727908
_cell_angle_beta   60.02040837
_cell_angle_gamma   61.26314346
_symmetry_Int_Tables_number   1
_chemical_formula_structural   Li6Mn3Nb(PO4)6
_chemical_formula_sum   'Li6 Mn3 Nb1 P6 O24'
_cell_volume   495.33911036
_cell_formula_units_Z   1
loop_
 _symmetry_equiv_pos_site_id
 _symmetry_equiv_pos_as_xyz
  1  'x, y, z'
loop_
 _atom_site_type_symbol
 _atom_site_label
 _atom_site_symmetry_multiplicity
 _atom_site_fract_x
 _atom_site_fract_y
 _atom_site_fract_z
 _atom_site_occupancy
  Li  Li0  1  0.03382244  0.02629338  0.00998941  1
  Li  Li1  1  0.73053966  0.16328597  0.35321752  1
  Li  Li2  1  0.47130877  0.50209637  0.49010320  1
  Li  Li3  1  0.31187702  0.83710913  0.64392815  1
  Li  Li4  1  0.64357949  0.31147328  0.83461674  1
  Li  Li5  1  0.84095431  0.64412810  0.30629600  1
  Mn  Mn6  1  0.15012301  0.14652246  0.14584793  1
  Mn  Mn7  1  0.34914291  0.36437262  0.34967501  1
  Mn  Mn8  1  0.65462457  0.65747049  0.65264425  1
  Nb  Nb9  1  0.85013300  0.84696933  0.85338902  1
  P  P10  1  0.05499292  0.75466907  0.43442291  1
  P  P11  1  0.44403313  0.05093412  0.75356589  1
  P  P12  1  0.74723341  0.43773801  0.04887930  1
  P  P13  1  0.24629606  0.54039721  0.95323513  1
  P  P14  1  0.55027468  0.95715556  0.25433257  1
  P  P15  1  0.95261888  0.24859919  0.53487472  1
  O  O16  1  0.12512257  0.26410487  0.51347792  1
  O  O17  1  0.26929127  0.53251359  0.11557265  1
  O  O18  1  0.06598277  0.92712729  0.25792435  1
  O  O19  1  0.55832355  0.11024931  0.28463546  1
  O  O20  1  0.23689078  0.60679644  0.43811220  1
  O  O21  1  0.97313968  0.82060661  0.60689943  1
  O  O22  1  0.26086193  0.08341116  0.91342352  1
  O  O23  1  0.47578715  0.22337933  0.58922966  1
  O  O24  1  0.59973981  0.43988693  0.23904693  1
  O  O25  1  0.18407625  0.38416756  0.99578838  1
  O  O26  1  0.09415563  0.73446993  0.89675223  1
  O  O27  1  0.38871108  0.01146586  0.20226622  1
  O  O28  1  0.60824603  0.96695308  0.82803752  1
  O  O29  1  0.89923935  0.25232987  0.07358156  1
  O  O30  1  0.82087932  0.60351013  0.97552061  1
  O  O31  1  0.41463162  0.55074431  0.77104318  1
  O  O32  1  0.55950357  0.77301775  0.41861463  1
  O  O33  1  0.74138625  0.89988728  0.09346895  1
  O  O34  1  0.97244032  0.19913508  0.37859529  1
  O  O35  1  0.77777086  0.41754490  0.55360234  1
  O  O36  1  0.45521318  0.90237970  0.69997607  1
  O  O37  1  0.89810170  0.09392563  0.73038074  1
  O  O38  1  0.68067384  0.46792024  0.90334073  1
  O  O39  1  0.90827525  0.69425888  0.45269169  1
