# generated using pymatgen
data_Li3Mn3(PO4)4
_symmetry_space_group_name_H-M   'P 1'
_cell_length_a   4.99588700
_cell_length_b   8.62533000
_cell_length_c   16.02838633
_cell_angle_alpha   63.78955109
_cell_angle_beta   90.00000000
_cell_angle_gamma   90.00000000
_symmetry_Int_Tables_number   1
_chemical_formula_structural   Li3Mn3(PO4)4
_chemical_formula_sum   'Li6 Mn6 P8 O32'
_cell_volume   619.66456991
_cell_formula_units_Z   2
loop_
 _symmetry_equiv_pos_site_id
 _symmetry_equiv_pos_as_xyz
  1  'x, y, z'
loop_
 _atom_site_type_symbol
 _atom_site_label
 _atom_site_symmetry_multiplicity
 _atom_site_fract_x
 _atom_site_fract_y
 _atom_site_fract_z
 _atom_site_occupancy
  Li  Li0  1  0.00000000  0.50000000  0.50000000  1
  Li  Li1  1  0.05927700  0.19337100  0.75564800  1
  Li  Li2  1  0.55927700  0.80662900  0.74435200  1
  Li  Li3  1  0.44072300  0.19337100  0.25564800  1
  Li  Li4  1  0.50000000  0.50000000  0.00000000  1
  Li  Li5  1  0.94072300  0.80662900  0.24435200  1
  Mn  Mn6  1  0.01019900  0.68991000  0.62384700  1
  Mn  Mn7  1  0.50000000  0.00000000  0.50000000  1
  Mn  Mn8  1  0.51019900  0.31009000  0.87615300  1
  Mn  Mn9  1  0.00000000  0.00000000  0.00000000  1
  Mn  Mn10  1  0.48980100  0.68991000  0.12384700  1
  Mn  Mn11  1  0.98980100  0.31009000  0.37615300  1
  P  P12  1  0.49663200  0.46958000  0.65103300  1
  P  P13  1  0.99663200  0.53042000  0.84896700  1
  P  P14  1  0.99723500  0.07596600  0.59640800  1
  P  P15  1  0.49723500  0.92403400  0.90359200  1
  P  P16  1  0.50276500  0.07596600  0.09640800  1
  P  P17  1  0.00276500  0.92403400  0.40359200  1
  P  P18  1  0.00336800  0.46958000  0.15103300  1
  P  P19  1  0.50336800  0.53042000  0.34896700  1
  O  O20  1  0.40867400  0.65431300  0.64060800  1
  O  O21  1  0.93176800  0.66636300  0.74465800  1
  O  O22  1  0.33958200  0.41089600  0.59052600  1
  O  O23  1  0.80604200  0.47905700  0.63774300  1
  O  O24  1  0.94910400  0.24915600  0.50863600  1
  O  O25  1  0.30604200  0.52094300  0.86225700  1
  O  O26  1  0.83958200  0.58910400  0.90947400  1
  O  O27  1  0.43176800  0.33363700  0.75534200  1
  O  O28  1  0.28931700  0.00551400  0.59919800  1
  O  O29  1  0.90867400  0.34568700  0.85939200  1
  O  O30  1  0.81294700  0.93534500  0.58150100  1
  O  O31  1  0.92172600  0.08070200  0.68538800  1
  O  O32  1  0.55089600  0.24915600  0.00863600  1
  O  O33  1  0.42172600  0.91929800  0.81461200  1
  O  O34  1  0.31294700  0.06465500  0.91849900  1
  O  O35  1  0.78931700  0.99448600  0.90080200  1
  O  O36  1  0.21068300  0.00551400  0.09919800  1
  O  O37  1  0.68705300  0.93534500  0.08150100  1
  O  O38  1  0.57827400  0.08070200  0.18538800  1
  O  O39  1  0.44910400  0.75084400  0.99136400  1
  O  O40  1  0.07827400  0.91929800  0.31461200  1
  O  O41  1  0.18705300  0.06465500  0.41849900  1
  O  O42  1  0.09132600  0.65431300  0.14060800  1
  O  O43  1  0.71068300  0.99448600  0.40080200  1
  O  O44  1  0.56823200  0.66636300  0.24465800  1
  O  O45  1  0.16041800  0.41089600  0.09052600  1
  O  O46  1  0.69395800  0.47905700  0.13774300  1
  O  O47  1  0.05089600  0.75084400  0.49136400  1
  O  O48  1  0.19395800  0.52094300  0.36225700  1
  O  O49  1  0.66041800  0.58910400  0.40947400  1
  O  O50  1  0.06823200  0.33363700  0.25534200  1
  O  O51  1  0.59132600  0.34568700  0.35939200  1
