# generated using pymatgen
data_LiMnPO4
_symmetry_space_group_name_H-M   'P 1'
_cell_length_a   11.01167900
_cell_length_b   5.88452900
_cell_length_c   10.00689500
_cell_angle_alpha   88.72720798
_cell_angle_beta   90.00000000
_cell_angle_gamma   90.00000000
_symmetry_Int_Tables_number   1
_chemical_formula_structural   LiMnPO4
_chemical_formula_sum   'Li8 Mn8 P8 O32'
_cell_volume   648.27224250
_cell_formula_units_Z   8
loop_
 _symmetry_equiv_pos_site_id
 _symmetry_equiv_pos_as_xyz
  1  'x, y, z'
loop_
 _atom_site_type_symbol
 _atom_site_label
 _atom_site_symmetry_multiplicity
 _atom_site_fract_x
 _atom_site_fract_y
 _atom_site_fract_z
 _atom_site_occupancy
  Li  Li0  1  0.15616200  0.88784500  0.86222700  1
  Li  Li1  1  0.34383800  0.88784500  0.36222700  1
  Li  Li2  1  0.65283000  0.61624900  0.60506400  1
  Li  Li3  1  0.84717000  0.61624900  0.10506400  1
  Li  Li4  1  0.15283000  0.38375100  0.89493600  1
  Li  Li5  1  0.34717000  0.38375100  0.39493600  1
  Li  Li6  1  0.65616200  0.11215500  0.63777300  1
  Li  Li7  1  0.84383800  0.11215500  0.13777300  1
  Mn  Mn8  1  0.87394300  0.84927400  0.51124400  1
  Mn  Mn9  1  0.62605700  0.84927400  0.01124400  1
  Mn  Mn10  1  0.40437000  0.62200200  0.76380900  1
  Mn  Mn11  1  0.09563000  0.62200200  0.26380900  1
  Mn  Mn12  1  0.90437000  0.37799800  0.73619100  1
  Mn  Mn13  1  0.59563000  0.37799800  0.23619100  1
  Mn  Mn14  1  0.37394300  0.15072600  0.98875600  1
  Mn  Mn15  1  0.12605700  0.15072600  0.48875600  1
  P  P16  1  0.89210300  0.87095500  0.84262000  1
  P  P17  1  0.60789700  0.87095500  0.34262000  1
  P  P18  1  0.14438800  0.62727000  0.59526800  1
  P  P19  1  0.35561200  0.62727000  0.09526800  1
  P  P20  1  0.64438800  0.37273000  0.90473200  1
  P  P21  1  0.85561200  0.37273000  0.40473200  1
  P  P22  1  0.39210300  0.12904500  0.65738000  1
  P  P23  1  0.10789700  0.12904500  0.15738000  1
  O  O24  1  0.81361300  0.89267000  0.97259300  1
  O  O25  1  0.47872400  0.92093900  0.67078400  1
  O  O26  1  0.68638700  0.89267000  0.47259300  1
  O  O27  1  0.02127600  0.92093900  0.17078400  1
  O  O28  1  0.80771500  0.85597100  0.71638700  1
  O  O29  1  0.06128400  0.83780200  0.57137800  1
  O  O30  1  0.69228500  0.85597100  0.21638700  1
  O  O31  1  0.43871600  0.83780200  0.07137800  1
  O  O32  1  0.22271900  0.67120100  0.71892600  1
  O  O33  1  0.96954300  0.64918000  0.85703100  1
  O  O34  1  0.27728100  0.67120100  0.21892600  1
  O  O35  1  0.53045700  0.64918000  0.35703100  1
  O  O36  1  0.56679500  0.59102600  0.87571100  1
  O  O37  1  0.28174900  0.58427100  0.96635600  1
  O  O38  1  0.93320500  0.59102600  0.37571100  1
  O  O39  1  0.21825100  0.58427100  0.46635600  1
  O  O40  1  0.78174900  0.41572900  0.53364400  1
  O  O41  1  0.06679500  0.40897400  0.62428900  1
  O  O42  1  0.71825100  0.41572900  0.03364400  1
  O  O43  1  0.43320500  0.40897400  0.12428900  1
  O  O44  1  0.46954300  0.35082000  0.64296900  1
  O  O45  1  0.72271900  0.32879900  0.78107400  1
  O  O46  1  0.03045700  0.35082000  0.14296900  1
  O  O47  1  0.77728100  0.32879900  0.28107400  1
  O  O48  1  0.56128400  0.16219800  0.92862200  1
  O  O49  1  0.30771500  0.14402900  0.78361300  1
  O  O50  1  0.93871600  0.16219800  0.42862200  1
  O  O51  1  0.19228500  0.14402900  0.28361300  1
  O  O52  1  0.97872400  0.07906100  0.82921600  1
  O  O53  1  0.31361300  0.10733000  0.52740700  1
  O  O54  1  0.52127600  0.07906100  0.32921600  1
  O  O55  1  0.18638700  0.10733000  0.02740700  1
