# generated using pymatgen
data_LiMnPO4
_symmetry_space_group_name_H-M   'P 1'
_cell_length_a   5.17818400
_cell_length_b   8.89123800
_cell_length_c   15.65060474
_cell_angle_alpha   86.67477370
_cell_angle_beta   90.00000000
_cell_angle_gamma   90.00000000
_symmetry_Int_Tables_number   1
_chemical_formula_structural   LiMnPO4
_chemical_formula_sum   'Li8 Mn8 P8 O32'
_cell_volume   719.34798660
_cell_formula_units_Z   8
loop_
 _symmetry_equiv_pos_site_id
 _symmetry_equiv_pos_as_xyz
  1  'x, y, z'
loop_
 _atom_site_type_symbol
 _atom_site_label
 _atom_site_symmetry_multiplicity
 _atom_site_fract_x
 _atom_site_fract_y
 _atom_site_fract_z
 _atom_site_occupancy
  Li  Li0  1  0.75567900  0.79635500  0.00250400  1
  Li  Li1  1  0.73246900  0.62534400  0.76147600  1
  Li  Li2  1  0.23246900  0.37465600  0.73852400  1
  Li  Li3  1  0.25567900  0.20364500  0.49749600  1
  Li  Li4  1  0.74432100  0.79635500  0.50250400  1
  Li  Li5  1  0.76753100  0.62534400  0.26147600  1
  Li  Li6  1  0.26753100  0.37465600  0.23852400  1
  Li  Li7  1  0.24432100  0.20364500  0.99749600  1
  Mn  Mn8  1  0.73306900  0.42162600  0.92053900  1
  Mn  Mn9  1  0.26038400  0.91061300  0.85015500  1
  Mn  Mn10  1  0.76038400  0.08938700  0.64984500  1
  Mn  Mn11  1  0.23306900  0.57837400  0.57946100  1
  Mn  Mn12  1  0.76693100  0.42162600  0.42053900  1
  Mn  Mn13  1  0.23961600  0.91061300  0.35015500  1
  Mn  Mn14  1  0.73961600  0.08938700  0.14984500  1
  Mn  Mn15  1  0.26693100  0.57837400  0.07946100  1
  P  P16  1  0.21884200  0.56440800  0.88783600  1
  P  P17  1  0.75474200  0.09218500  0.87155800  1
  P  P18  1  0.25474200  0.90781500  0.62844200  1
  P  P19  1  0.71884200  0.43559200  0.61216400  1
  P  P20  1  0.28115800  0.56440800  0.38783600  1
  P  P21  1  0.74525800  0.09218500  0.37155800  1
  P  P22  1  0.24525800  0.90781500  0.12844200  1
  P  P23  1  0.78115800  0.43559200  0.11216400  1
  O  O24  1  0.24140100  0.45159400  0.96867200  1
  O  O25  1  0.60767900  0.20490600  0.92699500  1
  O  O26  1  0.10581100  0.71558700  0.91247900  1
  O  O27  1  0.49451900  0.58240100  0.85036900  1
  O  O28  1  0.03113800  0.48897200  0.82429800  1
  O  O29  1  0.04783800  0.09209900  0.89577700  1
  O  O30  1  0.64271500  0.93071500  0.89093200  1
  O  O31  1  0.71488800  0.14194400  0.77567000  1
  O  O32  1  0.21488800  0.85805600  0.72433000  1
  O  O33  1  0.14271500  0.06928500  0.60906800  1
  O  O34  1  0.54783800  0.90790100  0.60422300  1
  O  O35  1  0.53113800  0.51102800  0.67570200  1
  O  O36  1  0.99451900  0.41759900  0.64963100  1
  O  O37  1  0.60581100  0.28441300  0.58752100  1
  O  O38  1  0.10767900  0.79509400  0.57300500  1
  O  O39  1  0.74140100  0.54840600  0.53132800  1
  O  O40  1  0.25859900  0.45159400  0.46867200  1
  O  O41  1  0.89232100  0.20490600  0.42699500  1
  O  O42  1  0.39418900  0.71558700  0.41247900  1
  O  O43  1  0.00548100  0.58240100  0.35036900  1
  O  O44  1  0.46886200  0.48897200  0.32429800  1
  O  O45  1  0.45216200  0.09209900  0.39577700  1
  O  O46  1  0.85728500  0.93071500  0.39093200  1
  O  O47  1  0.78511200  0.14194400  0.27567000  1
  O  O48  1  0.28511200  0.85805600  0.22433000  1
  O  O49  1  0.35728500  0.06928500  0.10906800  1
  O  O50  1  0.95216200  0.90790100  0.10422300  1
  O  O51  1  0.96886200  0.51102800  0.17570200  1
  O  O52  1  0.50548100  0.41759900  0.14963100  1
  O  O53  1  0.89418900  0.28441300  0.08752100  1
  O  O54  1  0.39232100  0.79509400  0.07300500  1
  O  O55  1  0.75859900  0.54840600  0.03132800  1
