# generated using pymatgen
data_Li2Nb(PO3)5
_symmetry_space_group_name_H-M   'P 1'
_cell_length_a   13.56458200
_cell_length_b   5.36533400
_cell_length_c   8.89206469
_cell_angle_alpha   78.02501264
_cell_angle_beta   90.00000000
_cell_angle_gamma   90.00000000
_symmetry_Int_Tables_number   1
_chemical_formula_structural   Li2Nb(PO3)5
_chemical_formula_sum   'Li4 Nb2 P10 O30'
_cell_volume   633.06811649
_cell_formula_units_Z   2
loop_
 _symmetry_equiv_pos_site_id
 _symmetry_equiv_pos_as_xyz
  1  'x, y, z'
loop_
 _atom_site_type_symbol
 _atom_site_label
 _atom_site_symmetry_multiplicity
 _atom_site_fract_x
 _atom_site_fract_y
 _atom_site_fract_z
 _atom_site_occupancy
  Li  Li0  1  0.87847400  0.94320400  0.08663200  1
  Li  Li1  1  0.62152600  0.94320400  0.08663200  1
  Li  Li2  1  0.37847400  0.05679600  0.91336800  1
  Li  Li3  1  0.12152600  0.05679600  0.91336800  1
  Nb  Nb4  1  0.00000000  0.50000000  0.50000000  1
  Nb  Nb5  1  0.50000000  0.50000000  0.50000000  1
  P  P6  1  0.35820300  0.00416800  0.48534700  1
  P  P7  1  0.14179700  0.00416800  0.48534700  1
  P  P8  1  0.92207900  0.66347400  0.81893100  1
  P  P9  1  0.57792100  0.66347400  0.81893100  1
  P  P10  1  0.25000000  0.54200200  0.98376400  1
  P  P11  1  0.75000000  0.45799800  0.01623600  1
  P  P12  1  0.42207900  0.33652600  0.18106900  1
  P  P13  1  0.07792100  0.33652600  0.18106900  1
  P  P14  1  0.64179700  0.99583200  0.51465300  1
  P  P15  1  0.85820300  0.99583200  0.51465300  1
  O  O16  1  0.75000000  0.93717900  0.46111300  1
  O  O17  1  0.96214700  0.81389400  0.92854600  1
  O  O18  1  0.53785300  0.81389400  0.92854600  1
  O  O19  1  0.25000000  0.80260300  0.88348900  1
  O  O20  1  0.85652100  0.85042900  0.69047800  1
  O  O21  1  0.64347900  0.85042900  0.69047800  1
  O  O22  1  0.57351100  0.87381000  0.41725800  1
  O  O23  1  0.92648900  0.87381000  0.41725800  1
  O  O24  1  0.36794100  0.72180200  0.48994300  1
  O  O25  1  0.13205900  0.72180200  0.48994300  1
  O  O26  1  0.84183400  0.45853900  0.89730300  1
  O  O27  1  0.65816600  0.45853900  0.89730300  1
  O  O28  1  0.99228300  0.51509300  0.73748400  1
  O  O29  1  0.50771700  0.51509300  0.73748400  1
  O  O30  1  0.75000000  0.70020400  0.07615100  1
  O  O31  1  0.25000000  0.29979600  0.92384900  1
  O  O32  1  0.49228300  0.48490700  0.26251600  1
  O  O33  1  0.00771700  0.48490700  0.26251600  1
  O  O34  1  0.34183400  0.54146100  0.10269700  1
  O  O35  1  0.15816600  0.54146100  0.10269700  1
  O  O36  1  0.86794100  0.27819800  0.51005700  1
  O  O37  1  0.63205900  0.27819800  0.51005700  1
  O  O38  1  0.42648900  0.12619000  0.58274200  1
  O  O39  1  0.07351100  0.12619000  0.58274200  1
  O  O40  1  0.35652100  0.14957100  0.30952200  1
  O  O41  1  0.14347900  0.14957100  0.30952200  1
  O  O42  1  0.75000000  0.19739700  0.11651100  1
  O  O43  1  0.46214700  0.18610600  0.07145400  1
  O  O44  1  0.03785300  0.18610600  0.07145400  1
  O  O45  1  0.25000000  0.06282100  0.53888700  1
