# generated using pymatgen
data_Li9Mn7V12O48
_symmetry_space_group_name_H-M   'P 1'
_cell_length_a   5.02933600
_cell_length_b   10.20009905
_cell_length_c   17.15220124
_cell_angle_alpha   90.02997901
_cell_angle_beta   90.57636135
_cell_angle_gamma   90.04430269
_symmetry_Int_Tables_number   1
_chemical_formula_structural   Li9Mn7V12O48
_chemical_formula_sum   'Li9 Mn7 V12 O48'
_cell_volume   879.85830669
_cell_formula_units_Z   1
loop_
 _symmetry_equiv_pos_site_id
 _symmetry_equiv_pos_as_xyz
  1  'x, y, z'
loop_
 _atom_site_type_symbol
 _atom_site_label
 _atom_site_symmetry_multiplicity
 _atom_site_fract_x
 _atom_site_fract_y
 _atom_site_fract_z
 _atom_site_occupancy
  Li  Li0  1  0.09735100  0.74946700  0.74933300  1
  Li  Li1  1  0.24777700  0.58252900  0.03231000  1
  Li  Li2  1  0.25714500  0.42044400  0.52794000  1
  Li  Li3  1  0.25865000  0.07940900  0.52753100  1
  Li  Li4  1  0.24493400  0.74464700  0.19579700  1
  Li  Li5  1  0.74852000  0.24671200  0.80823500  1
  Li  Li6  1  0.75388900  0.08129600  0.97062400  1
  Li  Li7  1  0.75260600  0.74730000  0.29909400  1
  Li  Li8  1  0.90216700  0.24981100  0.25147500  1
  Mn  Mn9  1  0.20361500  0.24856200  0.69961400  1
  Mn  Mn10  1  0.23785100  0.93472500  0.02543200  1
  Mn  Mn11  1  0.40396600  0.25067500  0.24946900  1
  Mn  Mn12  1  0.59726200  0.75034100  0.75150900  1
  Mn  Mn13  1  0.76001600  0.93211800  0.47248600  1
  Mn  Mn14  1  0.75822400  0.56741700  0.47266700  1
  Mn  Mn15  1  0.76398000  0.43341700  0.97746800  1
  V  V16  1  0.22533900  0.25286800  0.05643000  1
  V  V17  1  0.22529600  0.97146700  0.34496300  1
  V  V18  1  0.22410400  0.52847300  0.34520500  1
  V  V19  1  0.28867400  0.47508300  0.84690600  1
  V  V20  1  0.28574700  0.02441000  0.84284500  1
  V  V21  1  0.28765900  0.74972700  0.55621100  1
  V  V22  1  0.71239400  0.24959700  0.44100200  1
  V  V23  1  0.71644200  0.52492600  0.15810400  1
  V  V24  1  0.71307100  0.97525200  0.15365400  1
  V  V25  1  0.77338000  0.47220900  0.65651300  1
  V  V26  1  0.77544600  0.02702300  0.65605100  1
  V  V27  1  0.77299700  0.75249700  0.94432700  1
  O  O28  1  0.06298400  0.76639100  0.00477000  1
  O  O29  1  0.06593500  0.38513600  0.63129700  1
  O  O30  1  0.06636000  0.11577300  0.62975200  1
  O  O31  1  0.10516100  0.37389300  0.78722800  1
  O  O32  1  0.08663800  0.12452000  0.78349600  1
  O  O33  1  0.07915700  0.88093900  0.53413500  1
  O  O34  1  0.07821100  0.61908800  0.53399600  1
  O  O35  1  0.08704700  0.98875100  0.92626600  1
  O  O36  1  0.06986800  0.50655500  0.92517700  1
  O  O37  1  0.17270500  0.25265000  0.15726400  1
  O  O38  1  0.17566600  0.37607000  0.29618100  1
  O  O39  1  0.17324600  0.12187800  0.29534300  1
  O  O40  1  0.36455400  0.87701000  0.79227800  1
  O  O41  1  0.36508400  0.62020500  0.79625200  1
  O  O42  1  0.36802300  0.74853400  0.65536300  1
  O  O43  1  0.43845300  0.50170400  0.42726400  1
  O  O44  1  0.44151900  0.99720500  0.42667800  1
  O  O45  1  0.40047200  0.10854800  0.03383700  1
  O  O46  1  0.44780200  0.37596900  0.03241800  1
  O  O47  1  0.39662100  0.87428800  0.28765700  1
  O  O48  1  0.40621300  0.62596000  0.29142500  1
  O  O49  1  0.41960200  0.88897700  0.11968300  1
  O  O50  1  0.44794600  0.61245500  0.12953800  1
  O  O51  1  0.44963900  0.24988100  0.50030000  1
  O  O52  1  0.58342800  0.74975300  0.49131500  1
  O  O53  1  0.57602300  0.39028600  0.87922800  1
  O  O54  1  0.55660200  0.10887400  0.87051900  1
  O  O55  1  0.57070500  0.37393600  0.70839100  1
  O  O56  1  0.56776500  0.12485600  0.70558900  1
  O  O57  1  0.55464900  0.87632500  0.96766600  1
  O  O58  1  0.59983400  0.60782400  0.96592700  1
  O  O59  1  0.59695900  0.98448400  0.57032500  1
  O  O60  1  0.59551100  0.51474800  0.57076200  1
  O  O61  1  0.62750200  0.24822900  0.34168900  1
  O  O62  1  0.63399900  0.37583200  0.20787100  1
  O  O63  1  0.63318700  0.12109500  0.20371900  1
  O  O64  1  0.82809000  0.87755700  0.70761900  1
  O  O65  1  0.82857300  0.62012700  0.70878700  1
  O  O66  1  0.82480800  0.75302700  0.84217300  1
  O  O67  1  0.91984000  0.48737000  0.07167900  1
  O  O68  1  0.93175200  0.00830400  0.07289800  1
  O  O69  1  0.90810600  0.39412900  0.46251900  1
  O  O70  1  0.90920400  0.10563100  0.46271400  1
  O  O71  1  0.89094400  0.87944300  0.21184300  1
  O  O72  1  0.91762300  0.61775300  0.21464900  1
  O  O73  1  0.92616000  0.88784000  0.37830000  1
  O  O74  1  0.92518900  0.61213100  0.37898200  1
  O  O75  1  0.93614200  0.26566800  0.99404700  1
