# generated using pymatgen
data_Li4V3P8O29
_symmetry_space_group_name_H-M   'P 1'
_cell_length_a   9.76967500
_cell_length_b   9.80035903
_cell_length_c   14.13035159
_cell_angle_alpha   89.95351484
_cell_angle_beta   90.27955539
_cell_angle_gamma   119.78812814
_symmetry_Int_Tables_number   1
_chemical_formula_structural   Li4V3P8O29
_chemical_formula_sum   'Li8 V6 P16 O58'
_cell_volume   1174.14851076
_cell_formula_units_Z   2
loop_
 _symmetry_equiv_pos_site_id
 _symmetry_equiv_pos_as_xyz
  1  'x, y, z'
loop_
 _atom_site_type_symbol
 _atom_site_label
 _atom_site_symmetry_multiplicity
 _atom_site_fract_x
 _atom_site_fract_y
 _atom_site_fract_z
 _atom_site_occupancy
  Li  Li0  1  0.90676400  0.67624500  0.44053900  1
  Li  Li1  1  0.32663100  0.09169400  0.94537200  1
  Li  Li2  1  0.89955400  0.23036300  0.94259800  1
  Li  Li3  1  0.22293600  0.91701000  0.55677800  1
  Li  Li4  1  0.77255300  0.08761700  0.43680200  1
  Li  Li5  1  0.09059200  0.31584100  0.55649000  1
  Li  Li6  1  0.23668800  0.33493800  0.06178300  1
  Li  Li7  1  0.96065900  0.92875600  0.00192900  1
  V  V8  1  0.43813000  0.00207000  0.75119700  1
  V  V9  1  0.56621400  0.99692300  0.24750200  1
  V  V10  1  0.00569900  0.57237400  0.24238700  1
  V  V11  1  0.00053800  0.43544300  0.75241500  1
  V  V12  1  0.56971500  0.56825200  0.74975900  1
  V  V13  1  0.43722500  0.43447100  0.25478900  1
  P  P14  1  0.77043500  0.68994400  0.15761700  1
  P  P15  1  0.91260300  0.68148200  0.65972600  1
  P  P16  1  0.31499500  0.22965800  0.65945100  1
  P  P17  1  0.66287600  0.33179800  0.87065400  1
  P  P18  1  0.67626600  0.33748600  0.36953200  1
  P  P19  1  0.31331800  0.08942800  0.15898000  1
  P  P20  1  0.22994500  0.91256200  0.34037100  1
  P  P21  1  0.91184800  0.22710800  0.15935800  1
  P  P22  1  0.08776500  0.77762200  0.84249600  1
  P  P23  1  0.77189200  0.08977600  0.65510200  1
  P  P24  1  0.69412400  0.91462100  0.83769700  1
  P  P25  1  0.33411700  0.66724900  0.63198500  1
  P  P26  1  0.33504900  0.66185500  0.12857500  1
  P  P27  1  0.68696200  0.77140300  0.34287000  1
  P  P28  1  0.09007500  0.32151700  0.34000600  1
  P  P29  1  0.23187900  0.31673600  0.84320800  1
  O  O30  1  0.76740300  0.75725900  0.42806300  1
  O  O31  1  0.74461300  0.65869700  0.66647100  1
  O  O32  1  0.00992500  0.80090900  0.92505700  1
  O  O33  1  0.90911900  0.65338100  0.16777000  1
  O  O34  1  0.61265600  0.53441100  0.17052400  1
  O  O35  1  0.66601900  0.47906700  0.82378000  1
  O  O36  1  0.47427900  0.38260500  0.67641700  1
  O  O37  1  0.23527700  0.23693300  0.93354400  1
  O  O38  1  0.33905900  0.26042400  0.16671100  1
  O  O39  1  0.82350900  0.48706700  0.32789100  1
  O  O40  1  0.90198600  0.52029600  0.67987800  1
  O  O41  1  0.52844000  0.34134200  0.32069300  1
  O  O42  1  0.64410300  0.32112100  0.97564500  1
  O  O43  1  0.67204800  0.34618500  0.47464700  1
  O  O44  1  0.50821400  0.18346700  0.82641000  1
  O  O45  1  0.90937100  0.38303100  0.17241800  1
  O  O46  1  0.80957200  0.32297000  0.83554800  1
  O  O47  1  0.34006900  0.08394300  0.66038300  1
  O  O48  1  0.20594200  0.00080800  0.25042000  1
  O  O49  1  0.23324300  0.98925600  0.43137100  1
  O  O50  1  0.22499400  0.01694300  0.06920500  1
  O  O51  1  0.47058600  0.09280000  0.17143500  1
  O  O52  1  0.67377900  0.18601500  0.33221000  1
  O  O53  1  0.26278100  0.91933700  0.83588400  1
  O  O54  1  0.62048800  0.09973800  0.68088400  1
  O  O55  1  0.91927800  0.25553400  0.66214000  1
  O  O56  1  0.00927500  0.79810100  0.74494900  1
  O  O57  1  0.99660500  0.75188200  0.56888500  1
  O  O58  1  0.00283100  0.24415500  0.42904200  1
  O  O59  1  0.08367600  0.74305000  0.33471100  1
  O  O60  1  0.38259600  0.90554700  0.32087900  1
  O  O61  1  0.74360200  0.08668300  0.16422000  1
  O  O62  1  0.33537300  0.81882300  0.67534700  1
  O  O63  1  0.53502300  0.91649200  0.82700000  1
  O  O64  1  0.79195600  0.00450100  0.92071700  1
  O  O65  1  0.75555100  0.01176400  0.56280500  1
  O  O66  1  0.78990900  0.99168900  0.74108900  1
  O  O67  1  0.66344000  0.91614700  0.34121000  1
  O  O68  1  0.18466400  0.66586200  0.17359100  1
  O  O69  1  0.08609900  0.62117200  0.83259300  1
  O  O70  1  0.48129600  0.80620700  0.17086600  1
  O  O71  1  0.31684000  0.64618400  0.02389000  1
  O  O72  1  0.33352600  0.67281200  0.52675600  1
  O  O73  1  0.48035800  0.66473400  0.67755500  1
  O  O74  1  0.09542300  0.47865600  0.32083800  1
  O  O75  1  0.18529100  0.51707200  0.67184200  1
  O  O76  1  0.65810000  0.74248500  0.83419700  1
  O  O77  1  0.79183700  0.79495500  0.24976500  1
  O  O78  1  0.78668600  0.78120900  0.07103000  1
  O  O79  1  0.52422600  0.61936000  0.32299100  1
  O  O80  1  0.32488400  0.50786300  0.17194300  1
  O  O81  1  0.38410600  0.47448900  0.82603800  1
  O  O82  1  0.08524300  0.33924800  0.84013300  1
  O  O83  1  0.99778900  0.22923600  0.07046100  1
  O  O84  1  0.00085200  0.20779300  0.25057800  1
  O  O85  1  0.25882500  0.34547700  0.33650000  1
  O  O86  1  0.22658000  0.23347600  0.57516700  1
  O  O87  1  0.21208800  0.20449800  0.75516000  1
