# generated using pymatgen
data_LiSi6BiO14
_symmetry_space_group_name_H-M   'P 1'
_cell_length_a   13.14930430
_cell_length_b   13.14930430
_cell_length_c   13.14930430
_cell_angle_alpha   146.13628063
_cell_angle_beta   107.23526541
_cell_angle_gamma   82.72329857
_symmetry_Int_Tables_number   1
_chemical_formula_structural   LiSi6BiO14
_chemical_formula_sum   'Li4 Si24 Bi4 O56'
_cell_volume   1179.15903812
_cell_formula_units_Z   4
loop_
 _symmetry_equiv_pos_site_id
 _symmetry_equiv_pos_as_xyz
  1  'x, y, z'
loop_
 _atom_site_type_symbol
 _atom_site_label
 _atom_site_symmetry_multiplicity
 _atom_site_fract_x
 _atom_site_fract_y
 _atom_site_fract_z
 _atom_site_occupancy
  Li  Li0  1  0.25000000  0.25000000  0.00000000  1
  Li  Li1  1  0.75000000  0.75000000  0.00000000  1
  Li  Li2  1  0.50000000  0.00000000  0.50000000  1
  Li  Li3  1  0.00000000  0.50000000  0.50000000  1
  Si  Si4  1  0.36758100  0.67571000  0.04329100  1
  Si  Si5  1  0.13241900  0.17571000  0.30812900  1
  Si  Si6  1  0.83375400  0.23910100  0.07285500  1
  Si  Si7  1  0.92516900  0.11029800  0.33241100  1
  Si  Si8  1  0.57483100  0.90724200  0.18512900  1
  Si  Si9  1  0.27788700  0.61029800  0.18512900  1
  Si  Si10  1  0.22211300  0.40724200  0.33241100  1
  Si  Si11  1  0.33375400  0.26089900  0.59465300  1
  Si  Si12  1  0.76984700  0.00227900  0.47596100  1
  Si  Si13  1  0.02631800  0.50227900  0.23243200  1
  Si  Si14  1  0.47368200  0.70611400  0.47596100  1
  Si  Si15  1  0.73015300  0.20611400  0.23243200  1
  Si  Si16  1  0.52631800  0.29388600  0.52403900  1
  Si  Si17  1  0.23015300  0.99772100  0.52403900  1
  Si  Si18  1  0.97368200  0.49772100  0.76756800  1
  Si  Si19  1  0.26984700  0.79388600  0.76756800  1
  Si  Si20  1  0.66624600  0.73910100  0.40534700  1
  Si  Si21  1  0.42516900  0.09275800  0.81487100  1
  Si  Si22  1  0.77788700  0.59275800  0.66758900  1
  Si  Si23  1  0.07483100  0.88970200  0.66758900  1
  Si  Si24  1  0.72211300  0.38970200  0.81487100  1
  Si  Si25  1  0.16624600  0.76089900  0.92714500  1
  Si  Si26  1  0.86758100  0.82429000  0.69187100  1
  Si  Si27  1  0.63241900  0.32429000  0.95670900  1
  Bi  Bi28  1  0.96550500  0.75000000  0.21550500  1
  Bi  Bi29  1  0.46550500  0.25000000  0.21550500  1
  Bi  Bi30  1  0.53449500  0.75000000  0.78449500  1
  Bi  Bi31  1  0.03449500  0.25000000  0.78449500  1
  O  O32  1  0.48695400  0.81459200  0.17313000  1
  O  O33  1  0.35853800  0.68617600  0.17313000  1
  O  O34  1  0.27052800  0.75484000  0.02536800  1
  O  O35  1  0.41840900  0.22741400  0.01896800  1
  O  O36  1  0.79155400  0.60055900  0.01896800  1
  O  O37  1  0.13632100  0.96413300  0.10045400  1
  O  O38  1  0.91840900  0.89944100  0.19099500  1
  O  O39  1  0.29155400  0.27258600  0.19099500  1
  O  O40  1  0.43976900  0.22039200  0.53211900  1
  O  O41  1  0.31172700  0.09235100  0.53211900  1
  O  O42  1  0.11443100  0.05529200  0.53951800  1
  O  O43  1  0.48422500  0.42508600  0.53951800  1
  O  O44  1  0.01304600  0.18617600  0.32763800  1
  O  O45  1  0.14146200  0.31459200  0.32763800  1
  O  O46  1  0.22947200  0.25484000  0.48431200  1
  O  O47  1  0.98422500  0.44470800  0.05913900  1
  O  O48  1  0.61443100  0.07491400  0.05913900  1
  O  O49  1  0.80330000  0.11437900  0.25701200  1
  O  O50  1  0.69670000  0.95371200  0.31107900  1
  O  O51  1  0.35736700  0.61437900  0.31107900  1
  O  O52  1  0.14263300  0.45371200  0.25701200  1
  O  O53  1  0.81172700  0.27960800  0.21937700  1
  O  O54  1  0.93976900  0.40764900  0.21937700  1
  O  O55  1  0.54086100  0.10477800  0.30913800  1
  O  O56  1  0.20436000  0.76827700  0.30913800  1
  O  O57  1  0.95913900  0.26827700  0.56391700  1
  O  O58  1  0.29564000  0.60477800  0.56391700  1
  O  O59  1  0.36367900  0.46413300  0.82781200  1
  O  O60  1  0.63632100  0.53586700  0.17218800  1
  O  O61  1  0.70436000  0.39522200  0.43608300  1
  O  O62  1  0.45913900  0.89522200  0.69086200  1
  O  O63  1  0.79564000  0.23172300  0.69086200  1
  O  O64  1  0.04086100  0.73172300  0.43608300  1
  O  O65  1  0.18827300  0.72039200  0.78062300  1
  O  O66  1  0.06023100  0.59235100  0.78062300  1
  O  O67  1  0.30330000  0.04628800  0.68892100  1
  O  O68  1  0.85736700  0.54628800  0.74298800  1
  O  O69  1  0.64263300  0.38562100  0.68892100  1
  O  O70  1  0.19670000  0.88562100  0.74298800  1
  O  O71  1  0.01577500  0.55529200  0.94086100  1
  O  O72  1  0.38556900  0.92508600  0.94086100  1
  O  O73  1  0.77052800  0.74516000  0.51568800  1
  O  O74  1  0.85853800  0.68540800  0.67236200  1
  O  O75  1  0.98695400  0.81382400  0.67236200  1
  O  O76  1  0.88556900  0.94470800  0.46048200  1
  O  O77  1  0.51577500  0.57491400  0.46048200  1
  O  O78  1  0.56023100  0.77960800  0.46788100  1
  O  O79  1  0.68827300  0.90764900  0.46788100  1
  O  O80  1  0.70844600  0.72741400  0.80900500  1
  O  O81  1  0.08159100  0.10055900  0.80900500  1
  O  O82  1  0.86367900  0.03586700  0.89954600  1
  O  O83  1  0.58159100  0.77258600  0.98103200  1
  O  O84  1  0.20844600  0.39944100  0.98103200  1
  O  O85  1  0.72947200  0.24516000  0.97463200  1
  O  O86  1  0.51304600  0.18540800  0.82687000  1
  O  O87  1  0.64146200  0.31382400  0.82687000  1
