# generated using pymatgen
data_Li5Mn6(BO3)6
_symmetry_space_group_name_H-M   'P 1'
_cell_length_a   8.25186800
_cell_length_b   8.84833837
_cell_length_c   12.70842527
_cell_angle_alpha   92.43150437
_cell_angle_beta   108.91899458
_cell_angle_gamma   117.73845591
_symmetry_Int_Tables_number   1
_chemical_formula_structural   Li5Mn6(BO3)6
_chemical_formula_sum   'Li10 Mn12 B12 O36'
_cell_volume   755.91269687
_cell_formula_units_Z   2
loop_
 _symmetry_equiv_pos_site_id
 _symmetry_equiv_pos_as_xyz
  1  'x, y, z'
loop_
 _atom_site_type_symbol
 _atom_site_label
 _atom_site_symmetry_multiplicity
 _atom_site_fract_x
 _atom_site_fract_y
 _atom_site_fract_z
 _atom_site_occupancy
  Li  Li0  1  0.82313400  0.10375100  0.80240200  1
  Li  Li1  1  0.89361600  0.91807500  0.19303300  1
  Li  Li2  1  0.91226000  0.60985800  0.62613000  1
  Li  Li3  1  0.65992900  0.35832100  0.37846700  1
  Li  Li4  1  0.16122300  0.86378900  0.88057000  1
  Li  Li5  1  0.07250200  0.34635900  0.05086500  1
  Li  Li6  1  0.56866200  0.84962200  0.55554400  1
  Li  Li7  1  0.14931500  0.15803100  0.44310600  1
  Li  Li8  1  0.39476400  0.40901800  0.69330900  1
  Li  Li9  1  0.41065900  0.11361700  0.13086800  1
  Mn  Mn10  1  0.39245300  0.75231000  0.75188900  1
  Mn  Mn11  1  0.53202600  0.53175800  0.15511000  1
  Mn  Mn12  1  0.76411700  0.76768300  0.41045700  1
  Mn  Mn13  1  0.58407500  0.21539400  0.59327800  1
  Mn  Mn14  1  0.82011800  0.48174500  0.83949000  1
  Mn  Mn15  1  0.63883700  0.00789500  0.99781600  1
  Mn  Mn16  1  0.28609800  0.27459400  0.90675200  1
  Mn  Mn17  1  0.03541200  0.02034300  0.65812600  1
  Mn  Mn18  1  0.33340100  0.96097600  0.34438000  1
  Mn  Mn19  1  0.07162500  0.71060400  0.09477000  1
  Mn  Mn20  1  0.14812400  0.51112700  0.49848200  1
  Mn  Mn21  1  0.90298300  0.26781900  0.25093700  1
  B  B22  1  0.20630500  0.86983500  0.54041200  1
  B  B23  1  0.04416900  0.37772700  0.71000700  1
  B  B24  1  0.28640600  0.62953200  0.96657500  1
  B  B25  1  0.25628500  0.24389600  0.24850400  1
  B  B26  1  0.00530300  0.00451200  0.00234800  1
  B  B27  1  0.50309600  0.49532600  0.50531300  1
  B  B28  1  0.75256100  0.75352900  0.74364500  1
  B  B29  1  0.46160300  0.12257700  0.79418000  1
  B  B30  1  0.52877900  0.87503100  0.19759500  1
  B  B31  1  0.71832400  0.38553100  0.04834500  1
  B  B32  1  0.79492700  0.12420200  0.45681000  1
  B  B33  1  0.94052700  0.62102400  0.28538700  1
  O  O34  1  0.32178600  0.79315000  0.57638000  1
  O  O35  1  0.38118300  0.53444400  0.99969700  1
  O  O36  1  0.35212700  0.76598200  0.91473900  1
  O  O37  1  0.10189700  0.51946800  0.65993000  1
  O  O38  1  0.03924400  0.14383700  0.94680600  1
  O  O39  1  0.85333200  0.94287700  0.03981700  1
  O  O40  1  0.87510200  0.31663100  0.73463600  1
  O  O41  1  0.02847200  0.80810100  0.55549600  1
  O  O42  1  0.11089400  0.57478300  0.98524700  1
  O  O43  1  0.75646000  0.56253700  0.29653100  1
  O  O44  1  0.63336100  0.43033800  0.52009600  1
  O  O45  1  0.38745700  0.18004600  0.27467200  1
  O  O46  1  0.89104600  0.69677500  0.76582400  1
  O  O47  1  0.57144600  0.03944800  0.82454000  1
  O  O48  1  0.63359900  0.78652600  0.22737100  1
  O  O49  1  0.78942500  0.53457300  0.00443500  1
  O  O50  1  0.27028900  0.01107500  0.48903100  1
  O  O51  1  0.52312400  0.26536500  0.74390200  1
  O  O52  1  0.28712300  0.37535500  0.18977600  1
  O  O53  1  0.54624100  0.64950500  0.47068300  1
  O  O54  1  0.79221200  0.90652000  0.70342800  1
  O  O55  1  0.33173700  0.40280100  0.52777300  1
  O  O56  1  0.57956700  0.65739300  0.75995600  1
  O  O57  1  0.09293600  0.16881700  0.28029300  1
  O  O58  1  0.28839000  0.06424300  0.81407200  1
  O  O59  1  0.34768900  0.81605900  0.20875100  1
  O  O60  1  0.13070400  0.93391200  0.02188900  1
  O  O61  1  0.90856800  0.04377800  0.48195200  1
  O  O62  1  0.82028300  0.29586300  0.07359200  1
  O  O63  1  0.15769800  0.29671000  0.73623100  1
  O  O64  1  0.04968900  0.54538900  0.32650100  1
  O  O65  1  0.60862200  0.02636700  0.15974900  1
  O  O66  1  0.00584600  0.75940100  0.22997500  1
  O  O67  1  0.85182200  0.26914100  0.41004500  1
  O  O68  1  0.62222700  0.05476000  0.47884500  1
  O  O69  1  0.54254400  0.33037400  0.06652100  1
