# generated using pymatgen
data_Li5Cr4O8
_symmetry_space_group_name_H-M   'P 1'
_cell_length_a   8.38194600
_cell_length_b   8.54712200
_cell_length_c   8.88131000
_cell_angle_alpha   90.00000000
_cell_angle_beta   90.00000000
_cell_angle_gamma   90.00000000
_symmetry_Int_Tables_number   1
_chemical_formula_structural   Li5Cr4O8
_chemical_formula_sum   'Li20 Cr16 O32'
_cell_volume   636.27050411
_cell_formula_units_Z   4
loop_
 _symmetry_equiv_pos_site_id
 _symmetry_equiv_pos_as_xyz
  1  'x, y, z'
loop_
 _atom_site_type_symbol
 _atom_site_label
 _atom_site_symmetry_multiplicity
 _atom_site_fract_x
 _atom_site_fract_y
 _atom_site_fract_z
 _atom_site_occupancy
  Li  Li0  1  0.43844500  0.05627100  0.45539900  1
  Li  Li1  1  0.86685100  0.12455500  0.90103700  1
  Li  Li2  1  0.11322200  0.14426500  0.12515800  1
  Li  Li3  1  0.62476100  0.11255100  0.64635200  1
  Li  Li4  1  0.31339200  0.19797500  0.29436600  1
  Li  Li5  1  0.81339200  0.30202500  0.70563400  1
  Li  Li6  1  0.12476100  0.38744900  0.35364800  1
  Li  Li7  1  0.61322200  0.35573500  0.87484200  1
  Li  Li8  1  0.36685100  0.37544500  0.09896300  1
  Li  Li9  1  0.93844500  0.44372900  0.54460100  1
  Li  Li10  1  0.56155500  0.55627100  0.04460100  1
  Li  Li11  1  0.13314900  0.62455500  0.59896300  1
  Li  Li12  1  0.88677800  0.64426500  0.37484200  1
  Li  Li13  1  0.37523900  0.61255100  0.85364800  1
  Li  Li14  1  0.68660800  0.69797500  0.20563400  1
  Li  Li15  1  0.18660800  0.80202500  0.79436600  1
  Li  Li16  1  0.87523900  0.88744900  0.14635200  1
  Li  Li17  1  0.38677800  0.85573500  0.62515800  1
  Li  Li18  1  0.63314900  0.87544500  0.40103700  1
  Li  Li19  1  0.06155500  0.94372900  0.95539900  1
  Cr  Cr20  1  0.87527900  0.12354200  0.36945100  1
  Cr  Cr21  1  0.12436400  0.12715800  0.62360200  1
  Cr  Cr22  1  0.62436400  0.37284200  0.37639800  1
  Cr  Cr23  1  0.37527900  0.37645800  0.63054900  1
  Cr  Cr24  1  0.12472100  0.62354200  0.13054900  1
  Cr  Cr25  1  0.87563600  0.62715800  0.87639800  1
  Cr  Cr26  1  0.37563600  0.87284200  0.12360200  1
  Cr  Cr27  1  0.62472100  0.87645800  0.86945100  1
  Cr  Cr28  1  0.62345200  0.12401300  0.12015500  1
  Cr  Cr29  1  0.37157700  0.12390700  0.87397200  1
  Cr  Cr30  1  0.87157700  0.37609300  0.12602800  1
  Cr  Cr31  1  0.12345200  0.37598700  0.87984500  1
  Cr  Cr32  1  0.37654800  0.62401300  0.37984500  1
  Cr  Cr33  1  0.62842300  0.62390700  0.62602800  1
  Cr  Cr34  1  0.12842300  0.87609300  0.37397200  1
  Cr  Cr35  1  0.87654800  0.87598700  0.62015500  1
  O  O36  1  0.87460600  0.11566100  0.60258400  1
  O  O37  1  0.11702800  0.11228800  0.35710800  1
  O  O38  1  0.61999800  0.11601300  0.88212400  1
  O  O39  1  0.38295100  0.12290200  0.10473000  1
  O  O40  1  0.86717400  0.13061900  0.13334300  1
  O  O41  1  0.37435800  0.13985800  0.64321000  1
  O  O42  1  0.62926900  0.12387300  0.35397500  1
  O  O43  1  0.13131900  0.14020200  0.89124900  1
  O  O44  1  0.63131900  0.35979800  0.10875100  1
  O  O45  1  0.12926900  0.37612700  0.64602500  1
  O  O46  1  0.87435800  0.36014200  0.35679000  1
  O  O47  1  0.36717400  0.36938100  0.86665700  1
  O  O48  1  0.88295100  0.37709800  0.89527000  1
  O  O49  1  0.11999800  0.38398700  0.11787600  1
  O  O50  1  0.61702800  0.38771200  0.64289200  1
  O  O51  1  0.37460600  0.38433900  0.39741600  1
  O  O52  1  0.12539400  0.61566100  0.89741600  1
  O  O53  1  0.88297200  0.61228800  0.14289200  1
  O  O54  1  0.38000200  0.61601300  0.61787600  1
  O  O55  1  0.61704900  0.62290200  0.39527000  1
  O  O56  1  0.13282600  0.63061900  0.36665700  1
  O  O57  1  0.62564200  0.63985800  0.85679000  1
  O  O58  1  0.37073100  0.62387300  0.14602500  1
  O  O59  1  0.86868100  0.64020200  0.60875100  1
  O  O60  1  0.36868100  0.85979800  0.39124900  1
  O  O61  1  0.87073100  0.87612700  0.85397500  1
  O  O62  1  0.12564200  0.86014200  0.14321000  1
  O  O63  1  0.63282600  0.86938100  0.63334300  1
  O  O64  1  0.11704900  0.87709800  0.60473000  1
  O  O65  1  0.88000200  0.88398700  0.38212400  1
  O  O66  1  0.38297200  0.88771200  0.85710800  1
  O  O67  1  0.62539400  0.88433900  0.10258400  1
