# generated using pymatgen
data_Li5Co7O3F13
_symmetry_space_group_name_H-M   'P 1'
_cell_length_a   6.03837000
_cell_length_b   6.09113041
_cell_length_c   10.58232110
_cell_angle_alpha   73.37318603
_cell_angle_beta   73.47831820
_cell_angle_gamma   60.48032964
_symmetry_Int_Tables_number   1
_chemical_formula_structural   Li5Co7O3F13
_chemical_formula_sum   'Li5 Co7 O3 F13'
_cell_volume   319.70028107
_cell_formula_units_Z   1
loop_
 _symmetry_equiv_pos_site_id
 _symmetry_equiv_pos_as_xyz
  1  'x, y, z'
loop_
 _atom_site_type_symbol
 _atom_site_label
 _atom_site_symmetry_multiplicity
 _atom_site_fract_x
 _atom_site_fract_y
 _atom_site_fract_z
 _atom_site_occupancy
  Li  Li0  1  0.75350400  0.73545000  0.74990200  1
  Li  Li1  1  0.19534900  0.69759400  0.43484500  1
  Li  Li2  1  0.80460000  0.30553700  0.56410300  1
  Li  Li3  1  0.75508900  0.25037900  0.25273700  1
  Li  Li4  1  0.31589500  0.80450500  0.06452100  1
  Co  Co5  1  0.68030300  0.22165700  0.92607900  1
  Co  Co6  1  0.00311300  0.48430400  0.99185300  1
  Co  Co7  1  0.25851800  0.73385300  0.75226200  1
  Co  Co8  1  0.23839600  0.25785100  0.75978600  1
  Co  Co9  1  0.50026900  0.99485500  0.49521400  1
  Co  Co10  1  0.25301000  0.23190600  0.25829300  1
  Co  Co11  1  0.73565300  0.75030800  0.25812300  1
  O  O12  1  0.34939600  0.39894000  0.87022100  1
  O  O13  1  0.89134300  0.39000800  0.86821000  1
  O  O14  1  0.39745900  0.89488600  0.36937700  1
  F  F15  1  0.87782600  0.87040300  0.86884600  1
  F  F16  1  0.11720600  0.63405000  0.63188600  1
  F  F17  1  0.61979900  0.64002200  0.62537000  1
  F  F18  1  0.37967100  0.87469100  0.86389900  1
  F  F19  1  0.13808300  0.10578500  0.63210900  1
  F  F20  1  0.59753600  0.11823400  0.62638500  1
  F  F21  1  0.86515000  0.89069100  0.36784300  1
  F  F22  1  0.62844200  0.12669500  0.13227600  1
  F  F23  1  0.39009400  0.36217200  0.36969400  1
  F  F24  1  0.11871900  0.13380600  0.13178800  1
  F  F25  1  0.88010100  0.37691900  0.37014400  1
  F  F26  1  0.10707100  0.60465500  0.13524800  1
  F  F27  1  0.64840200  0.60984400  0.12898800  1
