# generated using pymatgen
data_Li47(NiO4)8
_symmetry_space_group_name_H-M   'P 1'
_cell_length_a   9.16041500
_cell_length_b   9.40227017
_cell_length_c   9.42323921
_cell_angle_alpha   89.79372517
_cell_angle_beta   89.92943244
_cell_angle_gamma   89.98895799
_symmetry_Int_Tables_number   1
_chemical_formula_structural   Li47(NiO4)8
_chemical_formula_sum   'Li47 Ni8 O32'
_cell_volume   811.60542233
_cell_formula_units_Z   1
loop_
 _symmetry_equiv_pos_site_id
 _symmetry_equiv_pos_as_xyz
  1  'x, y, z'
loop_
 _atom_site_type_symbol
 _atom_site_label
 _atom_site_symmetry_multiplicity
 _atom_site_fract_x
 _atom_site_fract_y
 _atom_site_fract_z
 _atom_site_occupancy
  Li  Li0  1  0.11700300  0.14833900  0.36460400  1
  Li  Li1  1  0.11998600  0.64817100  0.13293900  1
  Li  Li2  1  0.11631700  0.11529800  0.60413700  1
  Li  Li3  1  0.11522700  0.61339600  0.89412700  1
  Li  Li4  1  0.12150900  0.36485400  0.61244700  1
  Li  Li5  1  0.12145400  0.86035000  0.88731400  1
  Li  Li6  1  0.13378900  0.88201500  0.35132000  1
  Li  Li7  1  0.11672300  0.37828700  0.14224200  1
  Li  Li8  1  0.13390600  0.10620000  0.12561400  1
  Li  Li9  1  0.13762400  0.61226600  0.37799200  1
  Li  Li10  1  0.16116600  0.37173200  0.88163100  1
  Li  Li11  1  0.16049600  0.87530900  0.61766600  1
  Li  Li12  1  0.33327700  0.37470500  0.38065400  1
  Li  Li13  1  0.34084000  0.87423300  0.11676700  1
  Li  Li14  1  0.36518400  0.60807900  0.87103800  1
  Li  Li15  1  0.36625500  0.10827300  0.62778800  1
  Li  Li16  1  0.36683300  0.88043300  0.85121900  1
  Li  Li17  1  0.36712100  0.38102200  0.64738300  1
  Li  Li18  1  0.37996800  0.86146100  0.38555900  1
  Li  Li19  1  0.37877800  0.36182900  0.11489400  1
  Li  Li20  1  0.38385400  0.11445500  0.10695200  1
  Li  Li21  1  0.38602000  0.61389800  0.39254300  1
  Li  Li22  1  0.38446500  0.14706000  0.86866500  1
  Li  Li23  1  0.38301900  0.64767400  0.63038700  1
  Li  Li24  1  0.60357700  0.35125200  0.36981000  1
  Li  Li25  1  0.61749200  0.84878900  0.12953200  1
  Li  Li26  1  0.61594100  0.38352700  0.60886900  1
  Li  Li27  1  0.61599800  0.88705900  0.89230000  1
  Li  Li28  1  0.61786000  0.64086800  0.88356100  1
  Li  Li29  1  0.61998400  0.13806000  0.61382700  1
  Li  Li30  1  0.63361500  0.62024600  0.34831900  1
  Li  Li31  1  0.63226600  0.11474100  0.14797800  1
  Li  Li32  1  0.63451100  0.89096700  0.37061200  1
  Li  Li33  1  0.64976900  0.39105600  0.12543500  1
  Li  Li34  1  0.66115600  0.12640200  0.88282000  1
  Li  Li35  1  0.65874800  0.62652500  0.61844300  1
  Li  Li36  1  0.84083300  0.11974000  0.38533400  1
  Li  Li37  1  0.84566200  0.60784900  0.11571800  1
  Li  Li38  1  0.86812900  0.39118900  0.63597600  1
  Li  Li39  1  0.86686400  0.89283300  0.87116700  1
  Li  Li40  1  0.86386300  0.62181700  0.85158300  1
  Li  Li41  1  0.86465600  0.12024200  0.65226100  1
  Li  Li42  1  0.88173800  0.64173200  0.39041600  1
  Li  Li43  1  0.88126600  0.15402900  0.11420000  1
  Li  Li44  1  0.88490900  0.88452600  0.39150700  1
  Li  Li45  1  0.88455200  0.36112000  0.89681900  1
  Li  Li46  1  0.88393100  0.85394000  0.63008100  1
  Ni  Ni47  1  0.10118900  0.12091900  0.86726300  1
  Ni  Ni48  1  0.09882600  0.62381700  0.63331700  1
  Ni  Ni49  1  0.40131800  0.12259000  0.36874700  1
  Ni  Ni50  1  0.40239700  0.62179900  0.13012000  1
  Ni  Ni51  1  0.59805700  0.37832200  0.86907100  1
  Ni  Ni52  1  0.59842200  0.87763600  0.62961600  1
  Ni  Ni53  1  0.88727700  0.37646800  0.36008700  1
  Ni  Ni54  1  0.89953500  0.87744200  0.13057800  1
  O  O55  1  0.01102500  0.48417500  0.76292400  1
  O  O56  1  0.01082500  0.98448300  0.73521300  1
  O  O57  1  0.02794300  0.25072000  0.00692200  1
  O  O58  1  0.02020100  0.75918300  0.49104500  1
  O  O59  1  0.25090100  0.00717400  0.98039200  1
  O  O60  1  0.24925200  0.51110100  0.52032300  1
  O  O61  1  0.23590700  0.23361300  0.73560300  1
  O  O62  1  0.23605000  0.73514500  0.75999900  1
  O  O63  1  0.26429100  0.23277400  0.24003100  1
  O  O64  1  0.26478500  0.73409900  0.26029100  1
  O  O65  1  0.25119800  0.00972100  0.48083700  1
  O  O66  1  0.24949800  0.51001300  0.01976800  1
  O  O67  1  0.47937700  0.25756900  0.51054200  1
  O  O68  1  0.47949600  0.75876000  0.98867700  1
  O  O69  1  0.49005300  0.98252000  0.23897100  1
  O  O70  1  0.48930000  0.48435200  0.26118300  1
  O  O71  1  0.51039400  0.51691900  0.73603400  1
  O  O72  1  0.51096800  0.01638200  0.76008400  1
  O  O73  1  0.52158100  0.24091400  0.01100200  1
  O  O74  1  0.52128700  0.74171100  0.48899500  1
  O  O75  1  0.73906100  0.49932700  0.97519700  1
  O  O76  1  0.74921700  0.99048800  0.51832100  1
  O  O77  1  0.73599900  0.26543200  0.74102700  1
  O  O78  1  0.73599800  0.76757800  0.75804200  1
  O  O79  1  0.75833700  0.26181900  0.25614500  1
  O  O80  1  0.76624400  0.76244500  0.25983000  1
  O  O81  1  0.75499500  0.48685500  0.47705600  1
  O  O82  1  0.75177400  0.99218700  0.01867700  1
  O  O83  1  0.98156800  0.73977600  0.99220700  1
  O  O84  1  0.97742500  0.25365800  0.49741500  1
  O  O85  1  0.99261300  0.51165700  0.25919800  1
  O  O86  1  0.98808000  0.01653200  0.26133600  1
