# generated using pymatgen
data_LiCoPO4
_symmetry_space_group_name_H-M   'P 1'
_cell_length_a   10.85827389
_cell_length_b   10.85827389
_cell_length_c   11.58032200
_cell_angle_alpha   90.00000000
_cell_angle_beta   90.00000000
_cell_angle_gamma   119.99999934
_symmetry_Int_Tables_number   1
_chemical_formula_structural   LiCoPO4
_chemical_formula_sum   'Li12 Co12 P12 O48'
_cell_volume   1182.42296079
_cell_formula_units_Z   12
loop_
 _symmetry_equiv_pos_site_id
 _symmetry_equiv_pos_as_xyz
  1  'x, y, z'
loop_
 _atom_site_type_symbol
 _atom_site_label
 _atom_site_symmetry_multiplicity
 _atom_site_fract_x
 _atom_site_fract_y
 _atom_site_fract_z
 _atom_site_occupancy
  Li  Li0  1  0.00000000  0.50000000  0.01043300  1
  Li  Li1  1  0.00000000  0.50000000  0.65623400  1
  Li  Li2  1  0.00000000  0.50000000  0.33333300  1
  Li  Li3  1  0.00000000  0.00000000  0.16666700  1
  Li  Li4  1  0.00000000  0.00000000  0.50000000  1
  Li  Li5  1  0.00000000  0.00000000  0.83333300  1
  Li  Li6  1  0.50000000  0.50000000  0.34376600  1
  Li  Li7  1  0.50000000  0.50000000  0.66666700  1
  Li  Li8  1  0.50000000  0.50000000  0.98956700  1
  Li  Li9  1  0.50000000  0.00000000  0.32290100  1
  Li  Li10  1  0.50000000  0.00000000  0.00000000  1
  Li  Li11  1  0.50000000  0.00000000  0.67709900  1
  Co  Co12  1  0.00000000  0.75195100  0.33333300  1
  Co  Co13  1  0.24622600  0.75377400  0.66666700  1
  Co  Co14  1  0.00000000  0.24804900  0.33333300  1
  Co  Co15  1  0.24622600  0.49245200  0.00000000  1
  Co  Co16  1  0.24804900  0.24804900  0.66666700  1
  Co  Co17  1  0.50754800  0.75377400  0.33333300  1
  Co  Co18  1  0.24804900  0.00000000  0.00000000  1
  Co  Co19  1  0.49245200  0.24622600  0.33333300  1
  Co  Co20  1  0.75195100  0.75195100  0.66666700  1
  Co  Co21  1  0.75377400  0.50754800  0.00000000  1
  Co  Co22  1  0.75377400  0.24622600  0.66666700  1
  Co  Co23  1  0.75195100  0.00000000  0.00000000  1
  P  P24  1  0.00000000  0.74651100  0.83333300  1
  P  P25  1  0.00000000  0.25348900  0.83333300  1
  P  P26  1  0.25250100  0.74749900  0.16666700  1
  P  P27  1  0.25250100  0.50500200  0.50000000  1
  P  P28  1  0.49499800  0.74749900  0.83333300  1
  P  P29  1  0.25348900  0.25348900  0.16666700  1
  P  P30  1  0.25348900  0.00000000  0.50000000  1
  P  P31  1  0.74651100  0.74651100  0.16666700  1
  P  P32  1  0.50500200  0.25250100  0.83333300  1
  P  P33  1  0.74749900  0.49499800  0.50000000  1
  P  P34  1  0.74749900  0.25250100  0.16666700  1
  P  P35  1  0.74651100  0.00000000  0.50000000  1
  O  O36  1  0.10597800  0.89273100  0.44778500  1
  O  O37  1  0.10726900  0.89402200  0.88554900  1
  O  O38  1  0.06244900  0.69062300  0.74024400  1
  O  O39  1  0.12531000  0.70437000  0.24990900  1
  O  O40  1  0.29563000  0.87469000  0.08342500  1
  O  O41  1  0.30937700  0.93755100  0.59309000  1
  O  O42  1  0.19970700  0.59036700  0.57217300  1
  O  O43  1  0.06244900  0.37182500  0.92642300  1
  O  O44  1  0.19970700  0.60933900  0.09449400  1
  O  O45  1  0.12531000  0.42094000  0.41675800  1
  O  O46  1  0.10597800  0.21324800  0.21888200  1
  O  O47  1  0.40963300  0.80029300  0.76116100  1
  O  O48  1  0.39066100  0.80029300  0.23883900  1
  O  O49  1  0.10726900  0.21324800  0.78111800  1
  O  O50  1  0.29563000  0.42094000  0.58324200  1
  O  O51  1  0.40963300  0.60933900  0.90550600  1
  O  O52  1  0.30937700  0.37182500  0.07357700  1
  O  O53  1  0.39066100  0.59036700  0.42782700  1
  O  O54  1  0.21324800  0.10726900  0.55221500  1
  O  O55  1  0.21324800  0.10597800  0.11445100  1
  O  O56  1  0.62817500  0.93755100  0.40691000  1
  O  O57  1  0.57906000  0.87469000  0.91657500  1
  O  O58  1  0.57906000  0.70437000  0.75009100  1
  O  O59  1  0.37182500  0.30937700  0.25975600  1
  O  O60  1  0.62817500  0.69062300  0.25975600  1
  O  O61  1  0.42094000  0.29563000  0.75009100  1
  O  O62  1  0.42094000  0.12531000  0.91657500  1
  O  O63  1  0.37182500  0.06244900  0.40691000  1
  O  O64  1  0.78675200  0.89402200  0.11445100  1
  O  O65  1  0.78675200  0.89273100  0.55221500  1
  O  O66  1  0.60933900  0.40963300  0.42782700  1
  O  O67  1  0.69062300  0.62817500  0.07357700  1
  O  O68  1  0.59036700  0.39066100  0.90550600  1
  O  O69  1  0.70437000  0.57906000  0.58324200  1
  O  O70  1  0.89273100  0.78675200  0.78111800  1
  O  O71  1  0.60933900  0.19970700  0.23883900  1
  O  O72  1  0.59036700  0.19970700  0.76116100  1
  O  O73  1  0.89402200  0.78675200  0.21888200  1
  O  O74  1  0.87469000  0.57906000  0.41675800  1
  O  O75  1  0.80029300  0.39066100  0.09449400  1
  O  O76  1  0.93755100  0.62817500  0.92642300  1
  O  O77  1  0.80029300  0.40963300  0.57217300  1
  O  O78  1  0.69062300  0.06244900  0.59309000  1
  O  O79  1  0.70437000  0.12531000  0.08342500  1
  O  O80  1  0.87469000  0.29563000  0.24990900  1
  O  O81  1  0.93755100  0.30937700  0.74024400  1
  O  O82  1  0.89273100  0.10597800  0.88554900  1
  O  O83  1  0.89402200  0.10726900  0.44778500  1
