# generated using pymatgen
data_Li3V(BO3)2
_symmetry_space_group_name_H-M   'P 1'
_cell_length_a   8.10091600
_cell_length_b   8.25562921
_cell_length_c   8.19355034
_cell_angle_alpha   75.56442775
_cell_angle_beta   76.92991857
_cell_angle_gamma   76.52258426
_symmetry_Int_Tables_number   1
_chemical_formula_structural   Li3V(BO3)2
_chemical_formula_sum   'Li12 V4 B8 O24'
_cell_volume   507.77397192
_cell_formula_units_Z   4
loop_
 _symmetry_equiv_pos_site_id
 _symmetry_equiv_pos_as_xyz
  1  'x, y, z'
loop_
 _atom_site_type_symbol
 _atom_site_label
 _atom_site_symmetry_multiplicity
 _atom_site_fract_x
 _atom_site_fract_y
 _atom_site_fract_z
 _atom_site_occupancy
  Li  Li0  1  0.92651400  0.54371100  0.36425100  1
  Li  Li1  1  0.92658700  0.04372900  0.86408300  1
  Li  Li2  1  0.07350400  0.45631900  0.63573400  1
  Li  Li3  1  0.07340400  0.95624500  0.13592400  1
  Li  Li4  1  0.26123700  0.17946800  0.85942800  1
  Li  Li5  1  0.26127500  0.67958000  0.35949800  1
  Li  Li6  1  0.73879900  0.82050000  0.14054200  1
  Li  Li7  1  0.73875000  0.32042000  0.64049400  1
  Li  Li8  1  0.61486700  0.53659200  0.20795300  1
  Li  Li9  1  0.61497100  0.03634200  0.70790100  1
  Li  Li10  1  0.38506600  0.46344200  0.79207500  1
  Li  Li11  1  0.38505200  0.96355900  0.29211600  1
  V  V12  1  0.27389400  0.85449600  0.70418400  1
  V  V13  1  0.72620000  0.64527500  0.79597300  1
  V  V14  1  0.27365800  0.35474900  0.20412900  1
  V  V15  1  0.72622300  0.14559400  0.29569300  1
  B  B16  1  0.57058500  0.16602000  0.00019200  1
  B  B17  1  0.57061000  0.66599600  0.50040500  1
  B  B18  1  0.42949600  0.83396300  0.99966200  1
  B  B19  1  0.42934700  0.33400700  0.49965900  1
  B  B20  1  0.91157200  0.32755100  0.99132700  1
  B  B21  1  0.91139300  0.82728600  0.49164100  1
  B  B22  1  0.08842300  0.67266200  0.00845300  1
  B  B23  1  0.08851700  0.17257600  0.50858200  1
  O  O24  1  0.40103600  0.43711500  0.33665900  1
  O  O25  1  0.40117900  0.93698400  0.83671000  1
  O  O26  1  0.59901700  0.56308400  0.66349900  1
  O  O27  1  0.59903100  0.06294400  0.16325000  1
  O  O28  1  0.78041500  0.34718200  0.13400900  1
  O  O29  1  0.78037700  0.84645800  0.63447500  1
  O  O30  1  0.21960800  0.65308600  0.86577500  1
  O  O31  1  0.21953700  0.15311400  0.36575700  1
  O  O32  1  0.02742800  0.18000100  0.98499900  1
  O  O33  1  0.02743900  0.67993400  0.48505500  1
  O  O34  1  0.97255800  0.82013300  0.01485000  1
  O  O35  1  0.97255600  0.31999200  0.51511400  1
  O  O36  1  0.41063700  0.27834600  0.99771800  1
  O  O37  1  0.41063400  0.77822100  0.49784600  1
  O  O38  1  0.58945000  0.72162500  0.00211300  1
  O  O39  1  0.58934700  0.22166900  0.50217000  1
  O  O40  1  0.68560700  0.15075800  0.85498800  1
  O  O41  1  0.68562800  0.65072600  0.35517900  1
  O  O42  1  0.31448800  0.84917200  0.14495500  1
  O  O43  1  0.31437600  0.34924300  0.64491100  1
  O  O44  1  0.08681300  0.53391500  0.14750600  1
  O  O45  1  0.08721200  0.03375800  0.64759100  1
  O  O46  1  0.91294800  0.46632800  0.85233100  1
  O  O47  1  0.91273700  0.96613100  0.35264400  1
