# generated using pymatgen
data_LiNiO2
_symmetry_space_group_name_H-M   'P 1'
_cell_length_a   4.99209700
_cell_length_b   5.81369342
_cell_length_c   6.50577986
_cell_angle_alpha   102.98357102
_cell_angle_beta   97.63716772
_cell_angle_gamma   105.76109450
_symmetry_Int_Tables_number   1
_chemical_formula_structural   LiNiO2
_chemical_formula_sum   'Li5 Ni5 O10'
_cell_volume   173.24233823
_cell_formula_units_Z   5
loop_
 _symmetry_equiv_pos_site_id
 _symmetry_equiv_pos_as_xyz
  1  'x, y, z'
loop_
 _atom_site_type_symbol
 _atom_site_label
 _atom_site_symmetry_multiplicity
 _atom_site_fract_x
 _atom_site_fract_y
 _atom_site_fract_z
 _atom_site_occupancy
  Li  Li0  1  0.00000000  0.00000000  0.00000000  1
  Li  Li1  1  0.20154000  0.39932100  0.39705000  1
  Li  Li2  1  0.39518800  0.79531700  0.79715300  1
  Li  Li3  1  0.60481200  0.20468300  0.20284700  1
  Li  Li4  1  0.79846000  0.60067900  0.60295000  1
  Ni  Ni5  1  0.40122800  0.30227300  0.79952700  1
  Ni  Ni6  1  0.59877200  0.69772700  0.20047300  1
  Ni  Ni7  1  0.80142500  0.10112800  0.59990100  1
  Ni  Ni8  1  0.00000000  0.50000000  0.00000000  1
  Ni  Ni9  1  0.19857500  0.89887200  0.40009900  1
  O  O10  1  0.90522000  0.55076800  0.27693800  1
  O  O11  1  0.90976400  0.03880100  0.31915900  1
  O  O12  1  0.09478000  0.44923200  0.72306200  1
  O  O13  1  0.09023600  0.96119900  0.68084100  1
  O  O14  1  0.28469200  0.36262200  0.08992900  1
  O  O15  1  0.27801800  0.82436300  0.10475200  1
  O  O16  1  0.51257900  0.23354700  0.50424000  1
  O  O17  1  0.48742100  0.76645300  0.49576000  1
  O  O18  1  0.72198200  0.17563700  0.89524800  1
  O  O19  1  0.71530800  0.63737800  0.91007100  1
