# generated using pymatgen
data_Li2MnVP2(HO5)2
_symmetry_space_group_name_H-M   'P 1'
_cell_length_a   5.46098400
_cell_length_b   7.44473565
_cell_length_c   14.55657949
_cell_angle_alpha   95.60965132
_cell_angle_beta   91.23907045
_cell_angle_gamma   110.91956614
_symmetry_Int_Tables_number   1
_chemical_formula_structural   Li2MnVP2(HO5)2
_chemical_formula_sum   'Li6 Mn3 V3 P6 H6 O30'
_cell_volume   549.13049297
_cell_formula_units_Z   3
loop_
 _symmetry_equiv_pos_site_id
 _symmetry_equiv_pos_as_xyz
  1  'x, y, z'
loop_
 _atom_site_type_symbol
 _atom_site_label
 _atom_site_symmetry_multiplicity
 _atom_site_fract_x
 _atom_site_fract_y
 _atom_site_fract_z
 _atom_site_occupancy
  Li  Li0  1  0.26163800  0.86530800  0.69376700  1
  Li  Li1  1  0.06760000  0.46678000  0.64169000  1
  Li  Li2  1  0.40409500  0.79696300  0.97407900  1
  Li  Li3  1  0.60105500  0.20347600  0.02483400  1
  Li  Li4  1  0.93152700  0.53267900  0.35939400  1
  Li  Li5  1  0.73518400  0.13342900  0.30688700  1
  Mn  Mn6  1  0.33551100  0.33541000  0.83478300  1
  Mn  Mn7  1  0.33317200  0.33364300  0.33337800  1
  Mn  Mn8  1  0.66810800  0.66798900  0.66636900  1
  V  V9  1  0.66239300  0.66387200  0.16585000  1
  V  V10  1  0.99990900  0.00007300  0.50015000  1
  V  V11  1  0.00060100  0.99909000  0.99921500  1
  P  P12  1  0.01351800  0.37999700  0.14853800  1
  P  P13  1  0.31129100  0.95177900  0.18440800  1
  P  P14  1  0.34936300  0.71566000  0.48184000  1
  P  P15  1  0.65104900  0.28496700  0.51798100  1
  P  P16  1  0.68339300  0.04754900  0.81413400  1
  P  P17  1  0.98861300  0.61917400  0.85258000  1
  H  H18  1  0.05289400  0.98974800  0.32663200  1
  H  H19  1  0.28465600  0.34702900  0.00794600  1
  H  H20  1  0.38827300  0.32541800  0.65868700  1
  H  H21  1  0.61503400  0.67706000  0.34103000  1
  H  H22  1  0.71517500  0.65255900  0.99177800  1
  H  H23  1  0.94640600  0.01031300  0.67450600  1
  O  O24  1  0.09074900  0.83037100  0.90110400  1
  O  O25  1  0.03904800  0.83775900  0.21854800  1
  O  O26  1  0.14107900  0.79843600  0.44866100  1
  O  O27  1  0.20464100  0.54073200  0.88458500  1
  O  O28  1  0.29647900  0.95581500  0.07733800  1
  O  O29  1  0.02018500  0.37536900  0.25421400  1
  O  O30  1  0.35559500  0.71274100  0.58752600  1
  O  O31  1  0.24803800  0.50490300  0.43262900  1
  O  O32  1  0.05093100  0.10048900  0.37026400  1
  O  O33  1  0.28777000  0.49447100  0.11507400  1
  O  O34  1  0.28575600  0.23786600  0.96291700  1
  O  O35  1  0.57755200  0.83619400  0.76586000  1
  O  O36  1  0.52242800  0.86948500  0.21397800  1
  O  O37  1  0.38801900  0.43537200  0.70344700  1
  O  O38  1  0.62495600  0.82858300  0.44837900  1
  O  O39  1  0.37548300  0.17136800  0.55111300  1
  O  O40  1  0.61510000  0.56648600  0.29677500  1
  O  O41  1  0.46499100  0.12659200  0.78728600  1
  O  O42  1  0.41625300  0.16245000  0.23287600  1
  O  O43  1  0.71951400  0.76207300  0.03778000  1
  O  O44  1  0.72060400  0.50737800  0.88901400  1
  O  O45  1  0.94858900  0.89997900  0.63009500  1
  O  O46  1  0.75219600  0.49560300  0.56704400  1
  O  O47  1  0.64492500  0.28837400  0.41207000  1
  O  O48  1  0.97790800  0.62325600  0.74688500  1
  O  O49  1  0.70481300  0.04237100  0.92130000  1
  O  O50  1  0.80374400  0.46165400  0.11591700  1
  O  O51  1  0.85898300  0.20193500  0.55097300  1
  O  O52  1  0.94937900  0.16104300  0.77735400  1
  O  O53  1  0.91383900  0.17088700  0.09854400  1
