# generated using pymatgen
data_Li2VF5
_symmetry_space_group_name_H-M   'P 1'
_cell_length_a   6.16533500
_cell_length_b   6.32420500
_cell_length_c   9.12366200
_cell_angle_alpha   90.00000000
_cell_angle_beta   90.00000000
_cell_angle_gamma   90.00000000
_symmetry_Int_Tables_number   1
_chemical_formula_structural   Li2VF5
_chemical_formula_sum   'Li8 V4 F20'
_cell_volume   355.73926746
_cell_formula_units_Z   4
loop_
 _symmetry_equiv_pos_site_id
 _symmetry_equiv_pos_as_xyz
  1  'x, y, z'
loop_
 _atom_site_type_symbol
 _atom_site_label
 _atom_site_symmetry_multiplicity
 _atom_site_fract_x
 _atom_site_fract_y
 _atom_site_fract_z
 _atom_site_occupancy
  Li  Li0  1  0.04837900  0.47239200  0.66875900  1
  Li  Li1  1  0.04837900  0.02760800  0.66875900  1
  Li  Li2  1  0.54837900  0.52760800  0.83124100  1
  Li  Li3  1  0.54837900  0.97239200  0.83124100  1
  Li  Li4  1  0.45162100  0.47239200  0.16875900  1
  Li  Li5  1  0.45162100  0.02760800  0.16875900  1
  Li  Li6  1  0.95162100  0.52760800  0.33124100  1
  Li  Li7  1  0.95162100  0.97239200  0.33124100  1
  V  V8  1  0.56440400  0.25000000  0.51630200  1
  V  V9  1  0.06440400  0.75000000  0.98369800  1
  V  V10  1  0.93559600  0.25000000  0.01630200  1
  V  V11  1  0.43559600  0.75000000  0.48369800  1
  F  F12  1  0.89189400  0.25000000  0.55082200  1
  F  F13  1  0.32647800  0.03552100  0.56572600  1
  F  F14  1  0.32647800  0.46447900  0.56572600  1
  F  F15  1  0.57845500  0.75000000  0.68127700  1
  F  F16  1  0.58355300  0.25000000  0.73702700  1
  F  F17  1  0.08355300  0.75000000  0.76297300  1
  F  F18  1  0.07845500  0.25000000  0.81872300  1
  F  F19  1  0.82647800  0.96447900  0.93427400  1
  F  F20  1  0.82647800  0.53552100  0.93427400  1
  F  F21  1  0.39189400  0.75000000  0.94917800  1
  F  F22  1  0.60810600  0.25000000  0.05082200  1
  F  F23  1  0.17352200  0.03552100  0.06572600  1
  F  F24  1  0.17352200  0.46447900  0.06572600  1
  F  F25  1  0.92154500  0.75000000  0.18127700  1
  F  F26  1  0.91644700  0.25000000  0.23702700  1
  F  F27  1  0.41644700  0.75000000  0.26297300  1
  F  F28  1  0.42154500  0.25000000  0.31872300  1
  F  F29  1  0.67352200  0.96447900  0.43427400  1
  F  F30  1  0.67352200  0.53552100  0.43427400  1
  F  F31  1  0.10810600  0.75000000  0.44917800  1
