# generated using pymatgen
data_Li2FeF4
_symmetry_space_group_name_H-M   'P 1'
_cell_length_a   6.05259500
_cell_length_b   6.05259500
_cell_length_c   8.57785800
_cell_angle_alpha   90.00000000
_cell_angle_beta   90.00000000
_cell_angle_gamma   90.00000000
_symmetry_Int_Tables_number   1
_chemical_formula_structural   Li2FeF4
_chemical_formula_sum   'Li8 Fe4 F16'
_cell_volume   314.24044566
_cell_formula_units_Z   4
loop_
 _symmetry_equiv_pos_site_id
 _symmetry_equiv_pos_as_xyz
  1  'x, y, z'
loop_
 _atom_site_type_symbol
 _atom_site_label
 _atom_site_symmetry_multiplicity
 _atom_site_fract_x
 _atom_site_fract_y
 _atom_site_fract_z
 _atom_site_occupancy
  Li  Li0  1  0.25651500  0.25651500  0.37500000  1
  Li  Li1  1  0.25651500  0.74348500  0.12500000  1
  Li  Li2  1  0.26943800  0.50000000  0.75000000  1
  Li  Li3  1  0.50000000  0.26943800  0.00000000  1
  Li  Li4  1  0.50000000  0.73056200  0.50000000  1
  Li  Li5  1  0.73056200  0.50000000  0.25000000  1
  Li  Li6  1  0.74348500  0.25651500  0.62500000  1
  Li  Li7  1  0.74348500  0.74348500  0.87500000  1
  Fe  Fe8  1  0.00000000  0.26085000  0.00000000  1
  Fe  Fe9  1  0.00000000  0.73915000  0.50000000  1
  Fe  Fe10  1  0.26085000  0.00000000  0.75000000  1
  Fe  Fe11  1  0.73915000  0.00000000  0.25000000  1
  F  F12  1  0.01970900  0.24798700  0.75071700  1
  F  F13  1  0.01970900  0.75201300  0.74928300  1
  F  F14  1  0.24798700  0.01970900  0.99928300  1
  F  F15  1  0.24798700  0.98029100  0.50071700  1
  F  F16  1  0.24820000  0.48344600  0.99294100  1
  F  F17  1  0.24820000  0.51655400  0.50705900  1
  F  F18  1  0.48344600  0.24820000  0.75705900  1
  F  F19  1  0.48344600  0.75180000  0.74294100  1
  F  F20  1  0.51655400  0.24820000  0.24294100  1
  F  F21  1  0.51655400  0.75180000  0.25705900  1
  F  F22  1  0.75180000  0.51655400  0.49294100  1
  F  F23  1  0.75180000  0.48344600  0.00705900  1
  F  F24  1  0.75201300  0.98029100  0.49928300  1
  F  F25  1  0.75201300  0.01970900  0.00071700  1
  F  F26  1  0.98029100  0.24798700  0.24928300  1
  F  F27  1  0.98029100  0.75201300  0.25071700  1
