# generated using pymatgen
data_Li9V6(P8O29)2
_symmetry_space_group_name_H-M   'P 1'
_cell_length_a   9.80012000
_cell_length_b   9.80584707
_cell_length_c   13.97076950
_cell_angle_alpha   89.87778893
_cell_angle_beta   89.88697310
_cell_angle_gamma   60.19101492
_symmetry_Int_Tables_number   1
_chemical_formula_structural   Li9V6(P8O29)2
_chemical_formula_sum   'Li9 V6 P16 O58'
_cell_volume   1164.92764978
_cell_formula_units_Z   1
loop_
 _symmetry_equiv_pos_site_id
 _symmetry_equiv_pos_as_xyz
  1  'x, y, z'
loop_
 _atom_site_type_symbol
 _atom_site_label
 _atom_site_symmetry_multiplicity
 _atom_site_fract_x
 _atom_site_fract_y
 _atom_site_fract_z
 _atom_site_occupancy
  Li  Li0  1  0.68796800  0.08797400  0.06040800  1
  Li  Li1  1  0.22588700  0.08820100  0.55674600  1
  Li  Li2  1  0.33019600  0.34033300  0.88506000  1
  Li  Li3  1  0.08551400  0.22532500  0.06258900  1
  Li  Li4  1  0.22546000  0.68187900  0.06215800  1
  Li  Li5  1  0.90547500  0.32201800  0.44001600  1
  Li  Li6  1  0.09405500  0.67913300  0.55765300  1
  Li  Li7  1  0.77455800  0.91074800  0.43845200  1
  Li  Li8  1  0.31937100  0.90602700  0.94325000  1
  V  V9  1  0.99937500  0.43302900  0.24621200  1
  V  V10  1  0.99963300  0.56997600  0.75398900  1
  V  V11  1  0.57305700  0.42955400  0.74682200  1
  V  V12  1  0.43604300  0.56809300  0.25528500  1
  V  V13  1  0.56827500  0.00024300  0.25131700  1
  V  V14  1  0.43578700  0.99632900  0.74753100  1
  P  P15  1  0.68151300  0.08987000  0.84121900  1
  P  P16  1  0.68546400  0.23101700  0.34365000  1
  P  P17  1  0.23067900  0.08866500  0.34150600  1
  P  P18  1  0.33534200  0.33404700  0.12653600  1
  P  P19  1  0.33210400  0.33489500  0.62781200  1
  P  P20  1  0.09164100  0.22822800  0.84351600  1
  P  P21  1  0.91532000  0.31906700  0.65988900  1
  P  P22  1  0.23241900  0.68003700  0.84355900  1
  P  P23  1  0.76656300  0.31696300  0.15632500  1
  P  P24  1  0.08766500  0.67861300  0.34124700  1
  P  P25  1  0.91340800  0.77032800  0.15808800  1
  P  P26  1  0.67029300  0.66517900  0.37337900  1
  P  P27  1  0.66528500  0.66618600  0.87165400  1
  P  P28  1  0.77291700  0.91288800  0.65723900  1
  P  P29  1  0.31493400  0.76845400  0.65783900  1
  P  P30  1  0.32087400  0.91044600  0.15987700  1
  O  O31  1  0.75516600  0.99652600  0.56565400  1
  O  O32  1  0.66321700  0.08566800  0.34188700  1
  O  O33  1  0.75667900  0.23630000  0.06930700  1
  O  O34  1  0.65584300  0.25931700  0.83339200  1
  O  O35  1  0.51463500  0.10669700  0.82225600  1
  O  O36  1  0.48740100  0.18724600  0.16410900  1
  O  O37  1  0.38167700  0.09829400  0.32095700  1
  O  O38  1  0.24105800  0.99770500  0.06949700  1
  O  O39  1  0.25934000  0.07715600  0.83774900  1
  O  O40  1  0.47898400  0.33535300  0.67419900  1
  O  O41  1  0.52252300  0.38255700  0.32413800  1
  O  O42  1  0.33177000  0.18155800  0.66990200  1
  O  O43  1  0.33301700  0.33759200  0.01819700  1
  O  O44  1  0.33252800  0.33014500  0.52156200  1
  O  O45  1  0.18675600  0.32670100  0.16342200  1
  O  O46  1  0.37859900  0.51535000  0.82605300  1
  O  O47  1  0.32990800  0.48710500  0.16659200  1
  O  O48  1  0.08365100  0.25576400  0.33656900  1
  O  O49  1  0.00321200  0.20896300  0.75131700  1
  O  O50  1  0.00044400  0.23999400  0.56961600  1
  O  O51  1  0.01068200  0.23445600  0.93429300  1
  O  O52  1  0.11574500  0.37117600  0.82522300  1
  O  O53  1  0.18428600  0.48441200  0.66862600  1
  O  O54  1  0.91284700  0.33850800  0.15794000  1
  O  O55  1  0.09856200  0.52011100  0.32339100  1
  O  O56  1  0.25545900  0.65769200  0.33379300  1
  O  O57  1  0.79052100  0.20977100  0.25002400  1
  O  O58  1  0.76441300  0.24400400  0.43073500  1
  O  O59  1  0.22979500  0.76280700  0.57236100  1
  O  O60  1  0.74712800  0.34025700  0.66478400  1
  O  O61  1  0.90734100  0.47737600  0.67667500  1
  O  O62  1  0.08694000  0.65889800  0.84001600  1
  O  O63  1  0.81425600  0.51346800  0.33279600  1
  O  O64  1  0.90269000  0.61938800  0.17526400  1
  O  O65  1  0.00590100  0.76353900  0.07216000  1
  O  O66  1  0.00382800  0.75567700  0.43257100  1
  O  O67  1  0.99261100  0.79420500  0.25403500  1
  O  O68  1  0.91816900  0.74734100  0.66123000  1
  O  O69  1  0.65871400  0.52267600  0.82407500  1
  O  O70  1  0.61581000  0.47731800  0.17721000  1
  O  O71  1  0.81175000  0.66534600  0.82947500  1
  O  O72  1  0.65079700  0.67159700  0.97743200  1
  O  O73  1  0.66382400  0.66443900  0.47998300  1
  O  O74  1  0.67335000  0.81435000  0.33428700  1
  O  O75  1  0.47437200  0.61692500  0.67640000  1
  O  O76  1  0.51917100  0.66661300  0.32594100  1
  O  O77  1  0.74537300  0.91606600  0.16061500  1
  O  O78  1  0.79053700  0.00141600  0.74976200  1
  O  O79  1  0.75070000  0.00871300  0.93225300  1
  O  O80  1  0.61997300  0.90400000  0.68117300  1
  O  O81  1  0.51273700  0.81992300  0.82830700  1
  O  O82  1  0.48017800  0.89778400  0.17699800  1
  O  O83  1  0.33648500  0.74453500  0.16170000  1
  O  O84  1  0.24690500  0.75498400  0.93356700  1
  O  O85  1  0.21350600  0.79285300  0.75464500  1
  O  O86  1  0.33952700  0.91481300  0.65939000  1
  O  O87  1  0.23970300  0.00705900  0.43301000  1
  O  O88  1  0.20883400  0.00023800  0.25028600  1
