# generated using pymatgen
data_Li2Mn2P2O9
_symmetry_space_group_name_H-M   'P 1'
_cell_length_a   5.64843600
_cell_length_b   8.38068900
_cell_length_c   15.04165500
_cell_angle_alpha   90.00000000
_cell_angle_beta   90.00000000
_cell_angle_gamma   90.00000000
_symmetry_Int_Tables_number   1
_chemical_formula_structural   Li2Mn2P2O9
_chemical_formula_sum   'Li8 Mn8 P8 O36'
_cell_volume   712.03863724
_cell_formula_units_Z   4
loop_
 _symmetry_equiv_pos_site_id
 _symmetry_equiv_pos_as_xyz
  1  'x, y, z'
loop_
 _atom_site_type_symbol
 _atom_site_label
 _atom_site_symmetry_multiplicity
 _atom_site_fract_x
 _atom_site_fract_y
 _atom_site_fract_z
 _atom_site_occupancy
  Li  Li0  1  0.25000000  0.06030600  0.75993700  1
  Li  Li1  1  0.25000000  0.05952600  0.12917100  1
  Li  Li2  1  0.75000000  0.44047400  0.62917100  1
  Li  Li3  1  0.75000000  0.43969400  0.25993700  1
  Li  Li4  1  0.25000000  0.56030600  0.74006300  1
  Li  Li5  1  0.25000000  0.55952600  0.37082900  1
  Li  Li6  1  0.75000000  0.94047400  0.87082900  1
  Li  Li7  1  0.75000000  0.93969400  0.24006300  1
  Mn  Mn8  1  0.00000000  0.00000000  0.50000000  1
  Mn  Mn9  1  0.50000000  0.00000000  0.50000000  1
  Mn  Mn10  1  0.25000000  0.20391700  0.93920000  1
  Mn  Mn11  1  0.75000000  0.29608300  0.43920000  1
  Mn  Mn12  1  0.00000000  0.50000000  0.00000000  1
  Mn  Mn13  1  0.50000000  0.50000000  0.00000000  1
  Mn  Mn14  1  0.25000000  0.70391700  0.56080000  1
  Mn  Mn15  1  0.75000000  0.79608300  0.06080000  1
  P  P16  1  0.75000000  0.16897800  0.07678900  1
  P  P17  1  0.25000000  0.20991300  0.33479200  1
  P  P18  1  0.75000000  0.29008700  0.83479200  1
  P  P19  1  0.25000000  0.33102200  0.57678900  1
  P  P20  1  0.75000000  0.66897800  0.42321100  1
  P  P21  1  0.25000000  0.70991300  0.16520800  1
  P  P22  1  0.75000000  0.79008700  0.66520800  1
  P  P23  1  0.25000000  0.83102200  0.92321100  1
  O  O24  1  0.25000000  0.99084800  0.97791200  1
  O  O25  1  0.25000000  0.07490700  0.41108500  1
  O  O26  1  0.75000000  0.06889800  0.42535600  1
  O  O27  1  0.25000000  0.12633800  0.24741400  1
  O  O28  1  0.75000000  0.14224500  0.17589700  1
  O  O29  1  0.52717500  0.17981400  0.85044500  1
  O  O30  1  0.97282500  0.17981400  0.85044500  1
  O  O31  1  0.01751700  0.24137500  0.54707600  1
  O  O32  1  0.48248300  0.24137500  0.54707600  1
  O  O33  1  0.51751700  0.25862500  0.04707600  1
  O  O34  1  0.98248300  0.25862500  0.04707600  1
  O  O35  1  0.02717500  0.32018600  0.35044500  1
  O  O36  1  0.47282500  0.32018600  0.35044500  1
  O  O37  1  0.25000000  0.35775500  0.67589700  1
  O  O38  1  0.75000000  0.37366200  0.74741400  1
  O  O39  1  0.25000000  0.43110200  0.92535600  1
  O  O40  1  0.75000000  0.42509300  0.91108500  1
  O  O41  1  0.75000000  0.50915200  0.47791200  1
  O  O42  1  0.25000000  0.49084800  0.52208800  1
  O  O43  1  0.25000000  0.57490700  0.08891500  1
  O  O44  1  0.75000000  0.56889800  0.07464400  1
  O  O45  1  0.25000000  0.62633800  0.25258600  1
  O  O46  1  0.75000000  0.64224500  0.32410300  1
  O  O47  1  0.52717500  0.67981400  0.64955500  1
  O  O48  1  0.97282500  0.67981400  0.64955500  1
  O  O49  1  0.01751700  0.74137500  0.95292400  1
  O  O50  1  0.48248300  0.74137500  0.95292400  1
  O  O51  1  0.51751700  0.75862500  0.45292400  1
  O  O52  1  0.98248300  0.75862500  0.45292400  1
  O  O53  1  0.02717500  0.82018600  0.14955500  1
  O  O54  1  0.47282500  0.82018600  0.14955500  1
  O  O55  1  0.25000000  0.85775500  0.82410300  1
  O  O56  1  0.75000000  0.87366200  0.75258600  1
  O  O57  1  0.25000000  0.93110200  0.57464400  1
  O  O58  1  0.75000000  0.92509300  0.58891500  1
  O  O59  1  0.75000000  0.00915200  0.02208800  1
