# generated using pymatgen
data_Li3V2Cr2O8
_symmetry_space_group_name_H-M   'P 1'
_cell_length_a   5.87248900
_cell_length_b   5.95013404
_cell_length_c   5.96038155
_cell_angle_alpha   90.90699177
_cell_angle_beta   119.47787664
_cell_angle_gamma   119.13504312
_symmetry_Int_Tables_number   1
_chemical_formula_structural   Li3V2Cr2O8
_chemical_formula_sum   'Li3 V2 Cr2 O8'
_cell_volume   149.16606100
_cell_formula_units_Z   1
loop_
 _symmetry_equiv_pos_site_id
 _symmetry_equiv_pos_as_xyz
  1  'x, y, z'
loop_
 _atom_site_type_symbol
 _atom_site_label
 _atom_site_symmetry_multiplicity
 _atom_site_fract_x
 _atom_site_fract_y
 _atom_site_fract_z
 _atom_site_occupancy
  Li  Li0  1  0.50000000  0.00000000  0.00000000  1
  Li  Li1  1  0.00000000  0.00000000  0.50000000  1
  Li  Li2  1  0.00000000  0.50000000  0.50000000  1
  V  V3  1  0.00000000  0.50000000  0.00000000  1
  V  V4  1  0.50000000  0.50000000  0.50000000  1
  Cr  Cr5  1  0.50000000  0.50000000  0.00000000  1
  Cr  Cr6  1  0.00000000  0.00000000  0.00000000  1
  O  O7  1  0.51860200  0.73344700  0.76376700  1
  O  O8  1  0.46251300  0.71535200  0.22979300  1
  O  O9  1  0.97707300  0.73743800  0.21795200  1
  O  O10  1  0.99853800  0.74421700  0.76744500  1
  O  O11  1  0.00146200  0.25578300  0.23255500  1
  O  O12  1  0.02292700  0.26256200  0.78204800  1
  O  O13  1  0.53748700  0.28464800  0.77020700  1
  O  O14  1  0.48139800  0.26655300  0.23623300  1
