# generated using pymatgen
data_LiNiPO4
_symmetry_space_group_name_H-M   'P 1'
_cell_length_a   4.85470600
_cell_length_b   7.54752800
_cell_length_c   18.00687080
_cell_angle_alpha   88.91782135
_cell_angle_beta   90.00000000
_cell_angle_gamma   90.00000000
_symmetry_Int_Tables_number   1
_chemical_formula_structural   LiNiPO4
_chemical_formula_sum   'Li8 Ni8 P8 O32'
_cell_volume   659.67259993
_cell_formula_units_Z   8
loop_
 _symmetry_equiv_pos_site_id
 _symmetry_equiv_pos_as_xyz
  1  'x, y, z'
loop_
 _atom_site_type_symbol
 _atom_site_label
 _atom_site_symmetry_multiplicity
 _atom_site_fract_x
 _atom_site_fract_y
 _atom_site_fract_z
 _atom_site_occupancy
  Li  Li0  1  0.76632300  0.01418500  0.58805900  1
  Li  Li1  1  0.73367700  0.01418500  0.08805900  1
  Li  Li2  1  0.35802400  0.50643000  0.81926100  1
  Li  Li3  1  0.14197600  0.50643000  0.31926100  1
  Li  Li4  1  0.85802400  0.49357000  0.68073900  1
  Li  Li5  1  0.64197600  0.49357000  0.18073900  1
  Li  Li6  1  0.26632300  0.98581500  0.91194100  1
  Li  Li7  1  0.23367700  0.98581500  0.41194100  1
  Ni  Ni8  1  0.77591700  0.16461100  0.77140700  1
  Ni  Ni9  1  0.72408300  0.16461100  0.27140700  1
  Ni  Ni10  1  0.22753500  0.34953300  0.51501500  1
  Ni  Ni11  1  0.27246500  0.34953300  0.01501500  1
  Ni  Ni12  1  0.72753500  0.65046700  0.98498500  1
  Ni  Ni13  1  0.77246500  0.65046700  0.48498500  1
  Ni  Ni14  1  0.27591700  0.83538900  0.72859300  1
  Ni  Ni15  1  0.22408300  0.83538900  0.22859300  1
  P  P16  1  0.35119800  0.24117700  0.68054400  1
  P  P17  1  0.14880200  0.24117700  0.18054400  1
  P  P18  1  0.70686900  0.24934600  0.93463900  1
  P  P19  1  0.79313100  0.24934600  0.43463900  1
  P  P20  1  0.20686900  0.75065400  0.56536100  1
  P  P21  1  0.29313100  0.75065400  0.06536100  1
  P  P22  1  0.85119800  0.75882300  0.81945600  1
  P  P23  1  0.64880200  0.75882300  0.31945600  1
  O  O24  1  0.47653500  0.05948500  0.70987900  1
  O  O25  1  0.02346500  0.05948500  0.20987900  1
  O  O26  1  0.58772800  0.17886200  0.00930000  1
  O  O27  1  0.58965500  0.13998600  0.86965700  1
  O  O28  1  0.43637000  0.25280400  0.59826900  1
  O  O29  1  0.03775200  0.25443600  0.69243100  1
  O  O30  1  0.91227200  0.17886200  0.50930000  1
  O  O31  1  0.91034500  0.13998600  0.36965700  1
  O  O32  1  0.06363000  0.25280400  0.09826900  1
  O  O33  1  0.46224800  0.25443600  0.19243100  1
  O  O34  1  0.02526200  0.24829800  0.93353300  1
  O  O35  1  0.47473800  0.24829800  0.43353300  1
  O  O36  1  0.50781700  0.38098200  0.72830300  1
  O  O37  1  0.99218300  0.38098200  0.22830300  1
  O  O38  1  0.57856900  0.44301200  0.92566000  1
  O  O39  1  0.92143100  0.44301200  0.42566000  1
  O  O40  1  0.07856900  0.55698800  0.57434000  1
  O  O41  1  0.42143100  0.55698800  0.07434000  1
  O  O42  1  0.00781700  0.61901800  0.77169700  1
  O  O43  1  0.49218300  0.61901800  0.27169700  1
  O  O44  1  0.52526200  0.75170200  0.56646700  1
  O  O45  1  0.97473800  0.75170200  0.06646700  1
  O  O46  1  0.53775200  0.74556400  0.80756900  1
  O  O47  1  0.93637000  0.74719600  0.90173100  1
  O  O48  1  0.08965500  0.86001400  0.63034300  1
  O  O49  1  0.08772800  0.82113800  0.49070000  1
  O  O50  1  0.96224800  0.74556400  0.30756900  1
  O  O51  1  0.56363000  0.74719600  0.40173100  1
  O  O52  1  0.41034500  0.86001400  0.13034300  1
  O  O53  1  0.41227200  0.82113800  0.99070000  1
  O  O54  1  0.97653500  0.94051500  0.79012100  1
  O  O55  1  0.52346500  0.94051500  0.29012100  1
