# generated using pymatgen
data_Li6Mn9O20
_symmetry_space_group_name_H-M   'P 1'
_cell_length_a   5.85164434
_cell_length_b   5.85164434
_cell_length_c   24.29773196
_cell_angle_alpha   84.18317561
_cell_angle_beta   84.18317561
_cell_angle_gamma   60.56760912
_symmetry_Int_Tables_number   1
_chemical_formula_structural   Li6Mn9O20
_chemical_formula_sum   'Li12 Mn18 O40'
_cell_volume   719.60810500
_cell_formula_units_Z   2
loop_
 _symmetry_equiv_pos_site_id
 _symmetry_equiv_pos_as_xyz
  1  'x, y, z'
loop_
 _atom_site_type_symbol
 _atom_site_label
 _atom_site_symmetry_multiplicity
 _atom_site_fract_x
 _atom_site_fract_y
 _atom_site_fract_z
 _atom_site_occupancy
  Li  Li0  1  0.12860300  0.12860300  0.62045200  1
  Li  Li1  1  0.00000000  0.00000000  0.00000000  1
  Li  Li2  1  0.07874700  0.07874700  0.77212500  1
  Li  Li3  1  0.32366300  0.32366300  0.02957500  1
  Li  Li4  1  0.92125300  0.92125300  0.22787500  1
  Li  Li5  1  0.72087200  0.72087200  0.82779000  1
  Li  Li6  1  0.87139700  0.87139700  0.37954800  1
  Li  Li7  1  0.67633700  0.67633700  0.97042500  1
  Li  Li8  1  0.27912800  0.27912800  0.17221000  1
  Li  Li9  1  0.53181700  0.53181700  0.42584600  1
  Li  Li10  1  0.46818300  0.46818300  0.57415400  1
  Li  Li11  1  0.00000000  0.00000000  0.50000000  1
  Mn  Mn12  1  0.60247200  0.60247200  0.69892200  1
  Mn  Mn13  1  0.10098400  0.60513800  0.69877200  1
  Mn  Mn14  1  0.80167300  0.80167300  0.59725200  1
  Mn  Mn15  1  0.70259600  0.19346000  0.90118400  1
  Mn  Mn16  1  0.39928900  0.39928900  0.80018900  1
  Mn  Mn17  1  0.60513800  0.10098400  0.69877200  1
  Mn  Mn18  1  0.19346000  0.70259600  0.90118400  1
  Mn  Mn19  1  0.19597300  0.19597300  0.90121100  1
  Mn  Mn20  1  0.80402700  0.80402700  0.09878900  1
  Mn  Mn21  1  0.29740400  0.80654000  0.09881600  1
  Mn  Mn22  1  0.39752800  0.39752800  0.30107800  1
  Mn  Mn23  1  0.39486200  0.89901600  0.30122800  1
  Mn  Mn24  1  0.00000000  0.50000000  0.50000000  1
  Mn  Mn25  1  0.80654000  0.29740400  0.09881600  1
  Mn  Mn26  1  0.60071100  0.60071100  0.19981100  1
  Mn  Mn27  1  0.19832700  0.19832700  0.40274800  1
  Mn  Mn28  1  0.50000000  0.00000000  0.50000000  1
  Mn  Mn29  1  0.89901600  0.39486200  0.30122800  1
  O  O30  1  0.92806100  0.48620800  0.65316100  1
  O  O31  1  0.48620800  0.92806100  0.65316100  1
  O  O32  1  0.45364200  0.45364200  0.65610400  1
  O  O33  1  0.72934200  0.27157600  0.74286100  1
  O  O34  1  0.04323900  0.04323900  0.85758100  1
  O  O35  1  0.86652900  0.32490900  0.94204900  1
  O  O36  1  0.27157600  0.72934200  0.74286100  1
  O  O37  1  0.27218800  0.27218800  0.74642200  1
  O  O38  1  0.52673200  0.52673200  0.85345100  1
  O  O39  1  0.93233300  0.93233300  0.65101800  1
  O  O40  1  0.52792400  0.07461100  0.85583700  1
  O  O41  1  0.07461100  0.52792400  0.85583700  1
  O  O42  1  0.67509100  0.13347100  0.05795100  1
  O  O43  1  0.74935700  0.74935700  0.74361600  1
  O  O44  1  0.35353000  0.35353000  0.94251400  1
  O  O45  1  0.95676100  0.95676100  0.14241900  1
  O  O46  1  0.32490900  0.86652900  0.94204900  1
  O  O47  1  0.47207600  0.92538900  0.14416300  1
  O  O48  1  0.86623800  0.86623800  0.94195800  1
  O  O49  1  0.47326800  0.47326800  0.14654900  1
  O  O50  1  0.13347100  0.67509100  0.05795100  1
  O  O51  1  0.13376200  0.13376200  0.05804200  1
  O  O52  1  0.72781200  0.72781200  0.25357800  1
  O  O53  1  0.27065800  0.72842400  0.25713900  1
  O  O54  1  0.83524400  0.83524400  0.45931900  1
  O  O55  1  0.64647000  0.64647000  0.05748600  1
  O  O56  1  0.92538900  0.47207600  0.14416300  1
  O  O57  1  0.25064300  0.25064300  0.25638400  1
  O  O58  1  0.51379200  0.07193900  0.34683900  1
  O  O59  1  0.07193900  0.51379200  0.34683900  1
  O  O60  1  0.06766700  0.06766700  0.34898200  1
  O  O61  1  0.66547000  0.66547000  0.54632600  1
  O  O62  1  0.33453000  0.33453000  0.45367400  1
  O  O63  1  0.34679200  0.89282500  0.44805200  1
  O  O64  1  0.72842400  0.27065800  0.25713900  1
  O  O65  1  0.89282500  0.34679200  0.44805200  1
  O  O66  1  0.16475600  0.16475600  0.54068100  1
  O  O67  1  0.54635800  0.54635800  0.34389600  1
  O  O68  1  0.10717500  0.65320800  0.55194800  1
  O  O69  1  0.65320800  0.10717500  0.55194800  1
