# generated using pymatgen
data_LiMnNbO4
_symmetry_space_group_name_H-M   'P 1'
_cell_length_a   6.20907800
_cell_length_b   6.20909200
_cell_length_c   8.77325700
_cell_angle_alpha   89.99981629
_cell_angle_beta   90.00005381
_cell_angle_gamma   90.00001846
_symmetry_Int_Tables_number   1
_chemical_formula_structural   LiMnNbO4
_chemical_formula_sum   'Li4 Mn4 Nb4 O16'
_cell_volume   338.23306569
_cell_formula_units_Z   4
loop_
 _symmetry_equiv_pos_site_id
 _symmetry_equiv_pos_as_xyz
  1  'x, y, z'
loop_
 _atom_site_type_symbol
 _atom_site_label
 _atom_site_symmetry_multiplicity
 _atom_site_fract_x
 _atom_site_fract_y
 _atom_site_fract_z
 _atom_site_occupancy
  Li  Li0  1  0.00000000  0.22690400  0.00000000  1
  Li  Li1  1  0.00000000  0.77309100  0.50000000  1
  Li  Li2  1  0.22690800  0.00000000  0.25000000  1
  Li  Li3  1  0.77309200  0.99999900  0.74999900  1
  Mn  Mn4  1  0.49999200  0.23825800  0.00001200  1
  Mn  Mn5  1  0.49999600  0.76175200  0.49998700  1
  Mn  Mn6  1  0.23826000  0.50001200  0.24998600  1
  Mn  Mn7  1  0.76174400  0.50000400  0.75002600  1
  Nb  Nb8  1  0.25144700  0.25145500  0.62500900  1
  Nb  Nb9  1  0.25144700  0.74854800  0.87498600  1
  Nb  Nb10  1  0.74855800  0.25145300  0.37499200  1
  Nb  Nb11  1  0.74855700  0.74854900  0.12501000  1
  O  O12  1  0.99568600  0.25038800  0.25155000  1
  O  O13  1  0.99568400  0.74961100  0.24844800  1
  O  O14  1  0.25037600  0.99567400  0.99844900  1
  O  O15  1  0.25037600  0.00432300  0.50155000  1
  O  O16  1  0.74962400  0.99567300  0.00155000  1
  O  O17  1  0.74962400  0.00432300  0.49844800  1
  O  O18  1  0.00431600  0.25038700  0.74844900  1
  O  O19  1  0.00431700  0.74961000  0.75155100  1
  O  O20  1  0.25264000  0.49840900  0.00015000  1
  O  O21  1  0.25264000  0.50158700  0.49984800  1
  O  O22  1  0.49840500  0.25264400  0.24984600  1
  O  O23  1  0.49840700  0.74735500  0.25015200  1
  O  O24  1  0.50159400  0.25264300  0.75015500  1
  O  O25  1  0.50159200  0.74735400  0.74984500  1
  O  O26  1  0.74736000  0.50158500  0.50015100  1
  O  O27  1  0.74735900  0.49840900  0.99985100  1
