# generated using pymatgen
data_LiMnPO4
_symmetry_space_group_name_H-M   'P 1'
_cell_length_a   5.17653087
_cell_length_b   10.45531282
_cell_length_c   5.88233302
_cell_angle_alpha   90.00760070
_cell_angle_beta   90.00232897
_cell_angle_gamma   93.81483256
_symmetry_Int_Tables_number   1
_chemical_formula_structural   LiMnPO4
_chemical_formula_sum   'Li4 Mn4 P4 O16'
_cell_volume   317.65968375
_cell_formula_units_Z   4
loop_
 _symmetry_equiv_pos_site_id
 _symmetry_equiv_pos_as_xyz
  1  'x, y, z'
loop_
 _atom_site_type_symbol
 _atom_site_label
 _atom_site_symmetry_multiplicity
 _atom_site_fract_x
 _atom_site_fract_y
 _atom_site_fract_z
 _atom_site_occupancy
  Li  Li0  1  0.21747000  0.97510700  0.65624200  1
  Li  Li1  1  0.28270800  0.52481500  0.15650500  1
  Li  Li2  1  0.71762200  0.47509300  0.84370800  1
  Li  Li3  1  0.78252700  0.02490500  0.34350300  1
  Mn  Mn4  1  0.28480100  0.82875100  0.10034800  1
  Mn  Mn5  1  0.78459600  0.32885000  0.39968800  1
  Mn  Mn6  1  0.21543800  0.67112500  0.60038600  1
  Mn  Mn7  1  0.71540700  0.17114600  0.89960400  1
  P  P8  1  0.24533000  0.38743200  0.67357500  1
  P  P9  1  0.25463400  0.11260100  0.17333700  1
  P  P10  1  0.74538000  0.88739700  0.82646400  1
  P  P11  1  0.75462400  0.61259100  0.32662300  1
  O  O12  1  0.00071900  0.81854500  0.79502600  1
  O  O13  1  0.50065300  0.31857800  0.70502900  1
  O  O14  1  0.49928800  0.68144300  0.29507000  1
  O  O15  1  0.99931200  0.18146500  0.20491900  1
  O  O16  1  0.00384800  0.69633800  0.26512100  1
  O  O17  1  0.50387500  0.19632900  0.23499100  1
  O  O18  1  0.49612400  0.80363400  0.76497000  1
  O  O19  1  0.99604100  0.30370100  0.73503300  1
  O  O20  1  0.21084700  0.42817000  0.42405800  1
  O  O21  1  0.28911600  0.07202100  0.92373300  1
  O  O22  1  0.71083500  0.92812400  0.07599300  1
  O  O23  1  0.78900600  0.57191700  0.57617300  1
  O  O24  1  0.26846500  0.51033100  0.82752300  1
  O  O25  1  0.23142100  0.98964400  0.32710000  1
  O  O26  1  0.76853000  0.01028300  0.67254300  1
  O  O27  1  0.73138400  0.48966100  0.17273400  1
