# generated using pymatgen
data_Li2Mn3(BO3)3
_symmetry_space_group_name_H-M   'P 1'
_cell_length_a   6.30569600
_cell_length_b   8.26725366
_cell_length_c   8.68465511
_cell_angle_alpha   116.70819814
_cell_angle_beta   110.15366850
_cell_angle_gamma   91.97088856
_symmetry_Int_Tables_number   1
_chemical_formula_structural   Li2Mn3(BO3)3
_chemical_formula_sum   'Li4 Mn6 B6 O18'
_cell_volume   369.87780710
_cell_formula_units_Z   2
loop_
 _symmetry_equiv_pos_site_id
 _symmetry_equiv_pos_as_xyz
  1  'x, y, z'
loop_
 _atom_site_type_symbol
 _atom_site_label
 _atom_site_symmetry_multiplicity
 _atom_site_fract_x
 _atom_site_fract_y
 _atom_site_fract_z
 _atom_site_occupancy
  Li  Li0  1  0.36930200  0.30322700  0.28022300  1
  Li  Li1  1  0.60384100  0.98186000  0.69136000  1
  Li  Li2  1  0.07864000  0.98005200  0.69147200  1
  Li  Li3  1  0.78095600  0.72007600  0.02242300  1
  Mn  Mn4  1  0.18969000  0.01155100  0.37106700  1
  Mn  Mn5  1  0.66902300  0.01157800  0.33006500  1
  Mn  Mn6  1  0.01585200  0.38186900  0.99405000  1
  Mn  Mn7  1  0.52104600  0.34662700  0.00683000  1
  Mn  Mn8  1  0.80615800  0.60773600  0.62803000  1
  Mn  Mn9  1  0.32657200  0.65132100  0.68672300  1
  B  B10  1  0.48883900  0.99381500  0.98688900  1
  B  B11  1  0.99062500  0.00165000  0.98926700  1
  B  B12  1  0.06799800  0.32758100  0.66698800  1
  B  B13  1  0.59278500  0.33365800  0.66790600  1
  B  B14  1  0.43056800  0.67057600  0.34163300  1
  B  B15  1  0.92423100  0.67087800  0.34327300  1
  O  O16  1  0.13478200  0.25917200  0.79516000  1
  O  O17  1  0.65865000  0.26116100  0.78904900  1
  O  O18  1  0.00423100  0.21191600  0.48046100  1
  O  O19  1  0.49640200  0.22367900  0.47548000  1
  O  O20  1  0.53685900  0.17689900  0.12276200  1
  O  O21  1  0.05140700  0.19440200  0.08152800  1
  O  O22  1  0.07186400  0.51777700  0.74291200  1
  O  O23  1  0.63234400  0.52914900  0.74821600  1
  O  O24  1  0.48783300  0.59895200  0.46741900  1
  O  O25  1  0.96931700  0.60587200  0.47100600  1
  O  O26  1  0.34795000  0.53991200  0.15275800  1
  O  O27  1  0.86059700  0.54910800  0.15038600  1
  O  O28  1  0.38881000  0.93910800  0.79438700  1
  O  O29  1  0.88410200  0.90037400  0.79185300  1
  O  O30  1  0.45634800  0.85881600  0.40875600  1
  O  O31  1  0.93965700  0.85710500  0.40322200  1
  O  O32  1  0.53751200  0.85724000  0.03611400  1
  O  O33  1  0.03523500  0.90892400  0.09038100  1
