# generated using pymatgen
data_Li2MnVP2(HO5)2
_symmetry_space_group_name_H-M   'P 1'
_cell_length_a   6.87461586
_cell_length_b   7.31785082
_cell_length_c   8.15962131
_cell_angle_alpha   92.64474444
_cell_angle_beta   93.15529042
_cell_angle_gamma   117.09860972
_symmetry_Int_Tables_number   1
_chemical_formula_structural   Li2MnVP2(HO5)2
_chemical_formula_sum   'Li4 Mn2 V2 P4 H4 O20'
_cell_volume   363.70054119
_cell_formula_units_Z   2
loop_
 _symmetry_equiv_pos_site_id
 _symmetry_equiv_pos_as_xyz
  1  'x, y, z'
loop_
 _atom_site_type_symbol
 _atom_site_label
 _atom_site_symmetry_multiplicity
 _atom_site_fract_x
 _atom_site_fract_y
 _atom_site_fract_z
 _atom_site_occupancy
  Li  Li0  1  0.57351100  0.82675400  0.17712700  1
  Li  Li1  1  0.07050200  0.82610600  0.67692000  1
  Li  Li2  1  0.42642600  0.17327500  0.82278900  1
  Li  Li3  1  0.92936600  0.17398900  0.32305200  1
  Mn  Mn4  1  0.49991800  0.99971300  0.50008300  1
  Mn  Mn5  1  0.99996700  0.00002600  0.99990700  1
  V  V6  1  0.99986700  0.50004600  0.00005000  1
  V  V7  1  0.50004600  0.49992000  0.50010700  1
  P  P8  1  0.52055700  0.23150700  0.15444500  1
  P  P9  1  0.01710800  0.23151100  0.65436900  1
  P  P10  1  0.47942800  0.76852400  0.84558100  1
  P  P11  1  0.98292800  0.76855000  0.34564300  1
  H  H12  1  0.21318400  0.33517300  0.14990200  1
  H  H13  1  0.71255300  0.33922600  0.65035900  1
  H  H14  1  0.78692700  0.66522300  0.85019500  1
  H  H15  1  0.28737800  0.66050000  0.34959200  1
  O  O16  1  0.44263200  0.72520300  0.39842700  1
  O  O17  1  0.94333100  0.72990200  0.89555100  1
  O  O18  1  0.55730100  0.27436100  0.60146700  1
  O  O19  1  0.05674300  0.27036300  0.10450600  1
  O  O20  1  0.46176700  0.37808100  0.26065700  1
  O  O21  1  0.95803100  0.37836300  0.76037800  1
  O  O22  1  0.53830100  0.62192500  0.73935500  1
  O  O23  1  0.04187700  0.62165900  0.23953100  1
  O  O24  1  0.32709300  0.65224200  0.98090200  1
  O  O25  1  0.83365200  0.65706500  0.48225500  1
  O  O26  1  0.67288200  0.34784400  0.01910500  1
  O  O27  1  0.16639900  0.34293800  0.51776000  1
  O  O28  1  0.30844500  0.06798200  0.05270100  1
  O  O29  1  0.80253200  0.06513200  0.55552300  1
  O  O30  1  0.69160800  0.93208400  0.94722700  1
  O  O31  1  0.19764800  0.93467100  0.44447700  1
  O  O32  1  0.61928800  0.12098600  0.26140400  1
  O  O33  1  0.11715400  0.12227300  0.76163100  1
  O  O34  1  0.38069800  0.87897800  0.73860100  1
  O  O35  1  0.88295400  0.87790200  0.23842400  1
