# generated using pymatgen
data_Li2V2P2(H4O5)3
_symmetry_space_group_name_H-M   'P 1'
_cell_length_a   11.48018866
_cell_length_b   11.48018866
_cell_length_c   10.51878867
_cell_angle_alpha   78.89141229
_cell_angle_beta   78.89141229
_cell_angle_gamma   25.47130265
_symmetry_Int_Tables_number   1
_chemical_formula_structural   Li2V2P2(H4O5)3
_chemical_formula_sum   'Li4 V4 P4 H24 O30'
_cell_volume   584.45288694
_cell_formula_units_Z   2
loop_
 _symmetry_equiv_pos_site_id
 _symmetry_equiv_pos_as_xyz
  1  'x, y, z'
loop_
 _atom_site_type_symbol
 _atom_site_label
 _atom_site_symmetry_multiplicity
 _atom_site_fract_x
 _atom_site_fract_y
 _atom_site_fract_z
 _atom_site_occupancy
  Li  Li0  1  0.92202200  0.60041000  0.36427600  1
  Li  Li1  1  0.39959000  0.07797800  0.13572400  1
  Li  Li2  1  0.60041000  0.92202200  0.86427600  1
  Li  Li3  1  0.07797800  0.39959000  0.63572400  1
  V  V4  1  0.01815000  0.73204900  0.47146000  1
  V  V5  1  0.73204900  0.01815000  0.97146000  1
  V  V6  1  0.26795100  0.98185000  0.02854000  1
  V  V7  1  0.98185000  0.26795100  0.52854000  1
  P  P8  1  0.50813000  0.17631600  0.27407900  1
  P  P9  1  0.17631600  0.50813000  0.77407900  1
  P  P10  1  0.82368400  0.49187000  0.22592100  1
  P  P11  1  0.49187000  0.82368400  0.72592100  1
  H  H12  1  0.41429400  0.54109400  0.35280000  1
  H  H13  1  0.74409800  0.17917100  0.26788600  1
  H  H14  1  0.54109400  0.41429400  0.85280000  1
  H  H15  1  0.96234800  0.85193600  0.17505100  1
  H  H16  1  0.17917100  0.74409800  0.76788600  1
  H  H17  1  0.85193600  0.96234800  0.67505100  1
  H  H18  1  0.21250500  0.58168400  0.09481500  1
  H  H19  1  0.58168400  0.21250500  0.59481500  1
  H  H20  1  0.32181600  0.12141000  0.41606100  1
  H  H21  1  0.87859000  0.67818400  0.08393900  1
  H  H22  1  0.12141000  0.32181600  0.91606100  1
  H  H23  1  0.67818400  0.87859000  0.58393900  1
  H  H24  1  0.41831600  0.78749500  0.40518500  1
  H  H25  1  0.78749500  0.41831600  0.90518500  1
  H  H26  1  0.14806400  0.03765200  0.32494900  1
  H  H27  1  0.82082900  0.25590200  0.23211400  1
  H  H28  1  0.03765200  0.14806400  0.82494900  1
  H  H29  1  0.45890600  0.58570600  0.14720000  1
  H  H30  1  0.20903500  0.79341800  0.43423200  1
  H  H31  1  0.25590200  0.82082900  0.73211400  1
  H  H32  1  0.20658200  0.79096500  0.06576800  1
  H  H33  1  0.58570600  0.45890600  0.64720000  1
  H  H34  1  0.79341800  0.20903500  0.93423200  1
  H  H35  1  0.79096500  0.20658200  0.56576800  1
  O  O36  1  0.24017900  0.68828700  0.40779200  1
  O  O37  1  0.68828700  0.24017900  0.90779200  1
  O  O38  1  0.04630200  0.78526000  0.08455300  1
  O  O39  1  0.76463200  0.01196400  0.31398800  1
  O  O40  1  0.78526000  0.04630200  0.58455300  1
  O  O41  1  0.47047600  0.26677400  0.12633300  1
  O  O42  1  0.01196400  0.76463200  0.81398800  1
  O  O43  1  0.25022700  0.43619700  0.34947100  1
  O  O44  1  0.26677400  0.47047600  0.62633300  1
  O  O45  1  0.43619700  0.25022700  0.84947100  1
  O  O46  1  0.56111700  0.99545200  0.28934500  1
  O  O47  1  0.75039600  0.83528700  0.02448700  1
  O  O48  1  0.99545200  0.56111700  0.78934500  1
  O  O49  1  0.16471300  0.24960400  0.47551300  1
  O  O50  1  0.83528700  0.75039600  0.52448700  1
  O  O51  1  0.00454800  0.43888300  0.21065500  1
  O  O52  1  0.24960400  0.16471300  0.97551300  1
  O  O53  1  0.43888300  0.00454800  0.71065500  1
  O  O54  1  0.56380300  0.74977300  0.15052900  1
  O  O55  1  0.73322600  0.52952400  0.37366700  1
  O  O56  1  0.74977300  0.56380300  0.65052900  1
  O  O57  1  0.98803600  0.23536800  0.18601200  1
  O  O58  1  0.52952400  0.73322600  0.87366700  1
  O  O59  1  0.21474000  0.95369800  0.41544700  1
  O  O60  1  0.23536800  0.98803600  0.68601200  1
  O  O61  1  0.95369800  0.21474000  0.91544700  1
  O  O62  1  0.31171300  0.75982100  0.09220800  1
  O  O63  1  0.67099200  0.32900800  0.25000000  1
  O  O64  1  0.75982100  0.31171300  0.59220800  1
  O  O65  1  0.32900800  0.67099200  0.75000000  1
