# generated using pymatgen
data_LiV2P4(HO8)2
_symmetry_space_group_name_H-M   'P 1'
_cell_length_a   7.73354700
_cell_length_b   7.88881046
_cell_length_c   9.74663591
_cell_angle_alpha   90.04667436
_cell_angle_beta   112.96657213
_cell_angle_gamma   90.06094315
_symmetry_Int_Tables_number   1
_chemical_formula_structural   LiV2P4(HO8)2
_chemical_formula_sum   'Li2 V4 P8 H4 O32'
_cell_volume   547.49216634
_cell_formula_units_Z   2
loop_
 _symmetry_equiv_pos_site_id
 _symmetry_equiv_pos_as_xyz
  1  'x, y, z'
loop_
 _atom_site_type_symbol
 _atom_site_label
 _atom_site_symmetry_multiplicity
 _atom_site_fract_x
 _atom_site_fract_y
 _atom_site_fract_z
 _atom_site_occupancy
  Li  Li0  1  0.84975200  0.86894700  0.72665400  1
  Li  Li1  1  0.35278700  0.63208400  0.22186700  1
  V  V2  1  0.00510000  0.49353100  0.75402700  1
  V  V3  1  0.48543100  0.00399800  0.74596300  1
  V  V4  1  0.99161800  0.49636800  0.24887300  1
  V  V5  1  0.50000800  0.00747400  0.25192400  1
  P  P6  1  0.23214900  0.84585000  0.93122000  1
  P  P7  1  0.73169300  0.64910300  0.92894600  1
  P  P8  1  0.27128900  0.35705200  0.56829900  1
  P  P9  1  0.22548600  0.85484700  0.42666100  1
  P  P10  1  0.76206500  0.15562400  0.56883400  1
  P  P11  1  0.73749100  0.65752500  0.43250600  1
  P  P12  1  0.26727500  0.34811600  0.06967200  1
  P  P13  1  0.76528800  0.14792000  0.06814800  1
  H  H14  1  0.50635700  0.50963200  0.99160500  1
  H  H15  1  0.51020900  0.50097100  0.49463300  1
  H  H16  1  0.98759200  0.00545200  0.51052100  1
  H  H17  1  0.99365400  0.01143700  0.01166800  1
  O  O18  1  0.05413700  0.94424900  0.90417700  1
  O  O19  1  0.13631000  0.32757000  0.90314500  1
  O  O20  1  0.18594100  0.67091100  0.85740800  1
  O  O21  1  0.35354700  0.94436700  0.85722100  1
  O  O22  1  0.55100700  0.55275400  0.90521500  1
  O  O23  1  0.63828600  0.16336100  0.90029100  1
  O  O24  1  0.68387900  0.82658700  0.85399600  1
  O  O25  1  0.85015900  0.55687700  0.85576300  1
  O  O26  1  0.15668400  0.44261400  0.64731300  1
  O  O27  1  0.32443900  0.17347200  0.63942000  1
  O  O28  1  0.35894200  0.84109200  0.59857000  1
  O  O29  1  0.45042000  0.44824300  0.58845400  1
  O  O30  1  0.65372100  0.05164900  0.64787700  1
  O  O31  1  0.81627000  0.33066800  0.63967700  1
  O  O32  1  0.04983900  0.94848500  0.40968800  1
  O  O33  1  0.13686200  0.33748900  0.40053600  1
  O  O34  1  0.86021300  0.67514600  0.60020300  1
  O  O35  1  0.93936300  0.04757500  0.59708400  1
  O  O36  1  0.18424000  0.67409300  0.35387500  1
  O  O37  1  0.34797700  0.94428600  0.35449300  1
  O  O38  1  0.55579100  0.55775500  0.40448600  1
  O  O39  1  0.63591100  0.17441000  0.40250200  1
  O  O40  1  0.68357700  0.82939100  0.35620000  1
  O  O41  1  0.85526100  0.55696200  0.35898400  1
  O  O42  1  0.15144000  0.44832100  0.14781900  1
  O  O43  1  0.31469000  0.17128700  0.13895400  1
  O  O44  1  0.35958600  0.82798400  0.09859700  1
  O  O45  1  0.43919100  0.45631000  0.09578600  1
  O  O46  1  0.65273100  0.05893000  0.14666500  1
  O  O47  1  0.82140500  0.32909600  0.13977700  1
  O  O48  1  0.85843200  0.66247800  0.09971800  1
  O  O49  1  0.94836300  0.05341300  0.09592100  1
