# generated using pymatgen
data_Li4V3P8O29
_symmetry_space_group_name_H-M   'P 1'
_cell_length_a   9.72638100
_cell_length_b   9.73904581
_cell_length_c   14.17419861
_cell_angle_alpha   89.81037746
_cell_angle_beta   90.72960297
_cell_angle_gamma   119.61315781
_symmetry_Int_Tables_number   1
_chemical_formula_structural   Li4V3P8O29
_chemical_formula_sum   'Li8 V6 P16 O58'
_cell_volume   1167.18262233
_cell_formula_units_Z   2
loop_
 _symmetry_equiv_pos_site_id
 _symmetry_equiv_pos_as_xyz
  1  'x, y, z'
loop_
 _atom_site_type_symbol
 _atom_site_label
 _atom_site_symmetry_multiplicity
 _atom_site_fract_x
 _atom_site_fract_y
 _atom_site_fract_z
 _atom_site_occupancy
  Li  Li0  1  0.90491100  0.66920400  0.05444900  1
  Li  Li1  1  0.76814600  0.09181500  0.05411700  1
  Li  Li2  1  0.32566100  0.23259300  0.05936700  1
  Li  Li3  1  0.68560100  0.91767600  0.44229500  1
  Li  Li4  1  0.33304500  0.09951900  0.56234600  1
  Li  Li5  1  0.31892200  0.65462300  0.60784800  1
  Li  Li6  1  0.00250300  0.00041200  0.98373600  1
  Li  Li7  1  0.00202800  0.98936500  0.51429200  1
  V  V8  1  0.56547700  0.00182400  0.24645500  1
  V  V9  1  0.43081500  0.99925300  0.75273900  1
  V  V10  1  0.56990800  0.56712100  0.75300000  1
  V  V11  1  0.43678500  0.43869000  0.25247200  1
  V  V12  1  0.99929900  0.56070400  0.25593200  1
  V  V13  1  0.99868300  0.43092500  0.74690900  1
  P  P14  1  0.92142500  0.69413300  0.84098100  1
  P  P15  1  0.77882600  0.69497300  0.34203600  1
  P  P16  1  0.91886600  0.22067700  0.34644900  1
  P  P17  1  0.66823900  0.33732600  0.13214500  1
  P  P18  1  0.66181600  0.33236600  0.62976400  1
  P  P19  1  0.77965400  0.08685600  0.83891300  1
  P  P20  1  0.68339200  0.90544300  0.65863100  1
  P  P21  1  0.31075800  0.22781400  0.84490100  1
  P  P22  1  0.69137900  0.77440900  0.15553900  1
  P  P23  1  0.31625700  0.08906400  0.34500400  1
  P  P24  1  0.21586200  0.91267100  0.16391100  1
  P  P25  1  0.33835300  0.66970900  0.36902200  1
  P  P26  1  0.33072200  0.66352500  0.86685400  1
  P  P27  1  0.08597000  0.78255900  0.65638400  1
  P  P28  1  0.21770400  0.30668100  0.66112400  1
  P  P29  1  0.08253100  0.30486000  0.16064000  1
  O  O30  1  0.99841900  0.80245100  0.57647600  1
  O  O31  1  0.91439200  0.65471000  0.33531200  1
  O  O32  1  0.78721900  0.77975100  0.07330700  1
  O  O33  1  0.74647300  0.65927200  0.82981100  1
  O  O34  1  0.92378300  0.53863000  0.82664600  1
  O  O35  1  0.81425100  0.48773800  0.17777000  1
  O  O36  1  0.91872800  0.38144700  0.32939300  1
  O  O37  1  0.99321600  0.20545500  0.07796400  1
  O  O38  1  0.91946000  0.25916900  0.82635900  1
  O  O39  1  0.65269200  0.47232100  0.67996200  1
  O  O40  1  0.61869100  0.53693100  0.32861800  1
  O  O41  1  0.81294600  0.34143800  0.67818600  1
  O  O42  1  0.67053800  0.34813400  0.02727900  1
  O  O43  1  0.66752600  0.34264900  0.52578400  1
  O  O44  1  0.67595600  0.18849300  0.16785700  1
  O  O45  1  0.46620100  0.38444800  0.83030300  1
  O  O46  1  0.51510200  0.32961300  0.17390400  1
  O  O47  1  0.74410600  0.08412200  0.33474600  1
  O  O48  1  0.79426000  0.99342400  0.74915600  1
  O  O49  1  0.76912500  0.97998400  0.57023500  1
  O  O50  1  0.80382200  0.02053000  0.92863100  1
  O  O51  1  0.62234300  0.08504500  0.82844400  1
  O  O52  1  0.51467400  0.18042100  0.66638500  1
  O  O53  1  0.65764200  0.91434300  0.15688200  1
  O  O54  1  0.47154400  0.08979000  0.32778500  1
  O  O55  1  0.34546100  0.26050200  0.32609500  1
  O  O56  1  0.79625900  0.79856400  0.25005300  1
  O  O57  1  0.78856500  0.79079200  0.42569300  1
  O  O58  1  0.20388800  0.19643000  0.58426400  1
  O  O59  1  0.65085700  0.73242900  0.66642800  1
  O  O60  1  0.52150000  0.89786400  0.67042000  1
  O  O61  1  0.34489400  0.08984600  0.83005100  1
  O  O62  1  0.48890300  0.81632400  0.33286500  1
  O  O63  1  0.37886600  0.91793800  0.17270200  1
  O  O64  1  0.20222100  0.00492500  0.08389000  1
  O  O65  1  0.24146000  0.02975100  0.43765900  1
  O  O66  1  0.19461100  0.98347400  0.26232600  1
  O  O67  1  0.26119100  0.91944800  0.65918300  1
  O  O68  1  0.47734000  0.66142000  0.81992800  1
  O  O69  1  0.53489300  0.61614400  0.17109200  1
  O  O70  1  0.32897500  0.80943800  0.82444700  1
  O  O71  1  0.32899700  0.65104900  0.97048600  1
  O  O72  1  0.33281200  0.66121600  0.47386300  1
  O  O73  1  0.18866800  0.66811700  0.32311900  1
  O  O74  1  0.37183200  0.46832400  0.66752200  1
  O  O75  1  0.33541000  0.52095800  0.32218900  1
  O  O76  1  0.08003900  0.73809900  0.16322600  1
  O  O77  1  0.01450200  0.80556400  0.75495200  1
  O  O78  1  0.98751300  0.77838600  0.93240800  1
  O  O79  1  0.09198600  0.62572200  0.66448500  1
  O  O80  1  0.18512100  0.51843300  0.81555300  1
  O  O81  1  0.07593200  0.46048800  0.17407900  1
  O  O82  1  0.25823700  0.34423700  0.16097800  1
  O  O83  1  0.22894400  0.21074100  0.93597600  1
  O  O84  1  0.19459800  0.21463400  0.76011300  1
  O  O85  1  0.07900800  0.34423000  0.65917500  1
  O  O86  1  0.99522400  0.20905200  0.43387700  1
  O  O87  1  0.00781100  0.20483000  0.25529700  1
