# generated using pymatgen
data_Li2Mn3(BO3)3
_symmetry_space_group_name_H-M   'P 1'
_cell_length_a   5.29341900
_cell_length_b   6.20144549
_cell_length_c   11.78264497
_cell_angle_alpha   84.47723937
_cell_angle_beta   79.00490243
_cell_angle_gamma   87.45505676
_symmetry_Int_Tables_number   1
_chemical_formula_structural   Li2Mn3(BO3)3
_chemical_formula_sum   'Li4 Mn6 B6 O18'
_cell_volume   377.79025415
_cell_formula_units_Z   2
loop_
 _symmetry_equiv_pos_site_id
 _symmetry_equiv_pos_as_xyz
  1  'x, y, z'
loop_
 _atom_site_type_symbol
 _atom_site_label
 _atom_site_symmetry_multiplicity
 _atom_site_fract_x
 _atom_site_fract_y
 _atom_site_fract_z
 _atom_site_occupancy
  Li  Li0  1  0.15400600  0.85855900  0.54292400  1
  Li  Li1  1  0.52160900  0.79378800  0.13422900  1
  Li  Li2  1  0.84599400  0.14144100  0.45707600  1
  Li  Li3  1  0.47839100  0.20621200  0.86577100  1
  Mn  Mn4  1  0.69108500  0.69224300  0.44762600  1
  Mn  Mn5  1  0.30891500  0.30775700  0.55237400  1
  Mn  Mn6  1  0.98408800  0.96560000  0.21139700  1
  Mn  Mn7  1  0.35636100  0.36830600  0.12141500  1
  Mn  Mn8  1  0.01591200  0.03440000  0.78860300  1
  Mn  Mn9  1  0.64363900  0.63169400  0.87858500  1
  B  B10  1  0.40985700  0.07262200  0.33184200  1
  B  B11  1  0.74483600  0.38471300  0.66282100  1
  B  B12  1  0.08131400  0.75866300  0.99586300  1
  B  B13  1  0.25516400  0.61528700  0.33717900  1
  B  B14  1  0.59014300  0.92737800  0.66815800  1
  B  B15  1  0.91868600  0.24133700  0.00413700  1
  O  O16  1  0.33623100  0.97131900  0.65637600  1
  O  O17  1  0.77809100  0.87570300  0.57711500  1
  O  O18  1  0.66376900  0.02868100  0.34362400  1
  O  O19  1  0.22190900  0.12429700  0.42288500  1
  O  O20  1  0.34630400  0.04643900  0.22290000  1
  O  O21  1  0.70054600  0.38274900  0.54871600  1
  O  O22  1  0.32457600  0.69179300  0.01481200  1
  O  O23  1  0.29945400  0.61725100  0.45128400  1
  O  O24  1  0.88759000  0.81781000  0.08463100  1
  O  O25  1  0.43540800  0.54277000  0.25088500  1
  O  O26  1  0.01802100  0.75715200  0.88459300  1
  O  O27  1  0.01573400  0.70384900  0.31725200  1
  O  O28  1  0.65369600  0.95356100  0.77710000  1
  O  O29  1  0.98197900  0.24284800  0.11540700  1
  O  O30  1  0.11241000  0.18219000  0.91536900  1
  O  O31  1  0.67542400  0.30820700  0.98518800  1
  O  O32  1  0.56459200  0.45723000  0.74911500  1
  O  O33  1  0.98426600  0.29615100  0.68274800  1
