# generated using pymatgen
data_Li3P3(WO6)2
_symmetry_space_group_name_H-M   'P 1'
_cell_length_a   9.07726300
_cell_length_b   8.86645500
_cell_length_c   15.39930781
_cell_angle_alpha   55.08531118
_cell_angle_beta   90.00000000
_cell_angle_gamma   90.00000000
_symmetry_Int_Tables_number   1
_chemical_formula_structural   Li3P3(WO6)2
_chemical_formula_sum   'Li12 P12 W8 O48'
_cell_volume   1016.30186555
_cell_formula_units_Z   4
loop_
 _symmetry_equiv_pos_site_id
 _symmetry_equiv_pos_as_xyz
  1  'x, y, z'
loop_
 _atom_site_type_symbol
 _atom_site_label
 _atom_site_symmetry_multiplicity
 _atom_site_fract_x
 _atom_site_fract_y
 _atom_site_fract_z
 _atom_site_occupancy
  Li  Li0  1  0.07104100  0.23400400  0.70521300  1
  Li  Li1  1  0.77545600  0.61119000  0.17827400  1
  Li  Li2  1  0.72914900  0.97521200  0.82244300  1
  Li  Li3  1  0.22914900  0.02478800  0.67755700  1
  Li  Li4  1  0.27545600  0.38881000  0.32172600  1
  Li  Li5  1  0.57104100  0.76599600  0.79478700  1
  Li  Li6  1  0.42895900  0.23400400  0.20521300  1
  Li  Li7  1  0.72454400  0.61119000  0.67827400  1
  Li  Li8  1  0.77085100  0.97521200  0.32244300  1
  Li  Li9  1  0.27085100  0.02478800  0.17755700  1
  Li  Li10  1  0.22454400  0.38881000  0.82172600  1
  Li  Li11  1  0.92895900  0.76599600  0.29478700  1
  P  P12  1  0.24517600  0.45091100  0.50054100  1
  P  P13  1  0.39209400  0.04348700  0.84977700  1
  P  P14  1  0.10235700  0.74286200  0.14912600  1
  P  P15  1  0.60235700  0.25713800  0.35087400  1
  P  P16  1  0.89209400  0.95651300  0.65022300  1
  P  P17  1  0.74517600  0.54908900  0.99945900  1
  P  P18  1  0.25482400  0.45091100  0.00054100  1
  P  P19  1  0.10790600  0.04348700  0.34977700  1
  P  P20  1  0.39764300  0.74286200  0.64912600  1
  P  P21  1  0.89764300  0.25713800  0.85087400  1
  P  P22  1  0.60790600  0.95651300  0.15022300  1
  P  P23  1  0.75482400  0.54908900  0.49945900  1
  W  W24  1  0.54200300  0.14230800  0.61288000  1
  W  W25  1  0.04200300  0.85769200  0.88712000  1
  W  W26  1  0.95799700  0.14230800  0.11288000  1
  W  W27  1  0.45799700  0.85769200  0.38712000  1
  W  W28  1  0.45681800  0.64074300  0.11322700  1
  W  W29  1  0.95681800  0.35925700  0.38677300  1
  W  W30  1  0.04318200  0.64074300  0.61322700  1
  W  W31  1  0.54318200  0.35925700  0.88677300  1
  O  O32  1  0.86995300  0.53399300  0.42995100  1
  O  O33  1  0.67095500  0.37132400  0.57517100  1
  O  O34  1  0.89000100  0.08190000  0.84965800  1
  O  O35  1  0.59496600  0.76326400  0.17266100  1
  O  O36  1  0.34012700  0.28263100  0.58280100  1
  O  O37  1  0.40900200  0.89183200  0.96632200  1
  O  O38  1  0.23548900  0.03761000  0.80773700  1
  O  O39  1  0.97789600  0.62296800  0.23234000  1
  O  O40  1  0.16941600  0.39488500  0.43233200  1
  O  O41  1  0.25238200  0.64265200  0.18764500  1
  O  O42  1  0.05417900  0.78392200  0.04396600  1
  O  O43  1  0.51380900  0.01625900  0.78624900  1
  O  O44  1  0.01380900  0.98374100  0.71375100  1
  O  O45  1  0.55417900  0.21607800  0.45603400  1
  O  O46  1  0.75238200  0.35734800  0.31235500  1
  O  O47  1  0.66941600  0.60511500  0.06766800  1
  O  O48  1  0.47789600  0.37703200  0.26766000  1
  O  O49  1  0.73548900  0.96239000  0.69226300  1
  O  O50  1  0.90900200  0.10816800  0.53367800  1
  O  O51  1  0.84012700  0.71736900  0.91719900  1
  O  O52  1  0.39000100  0.91810000  0.65034200  1
  O  O53  1  0.09496600  0.23673600  0.32733900  1
  O  O54  1  0.17095500  0.62867600  0.92482900  1
  O  O55  1  0.36995300  0.46600700  0.07004900  1
  O  O56  1  0.63004700  0.53399300  0.92995100  1
  O  O57  1  0.82904500  0.37132400  0.07517100  1
  O  O58  1  0.90503400  0.76326400  0.67266100  1
  O  O59  1  0.60999900  0.08190000  0.34965800  1
  O  O60  1  0.15987300  0.28263100  0.08280100  1
  O  O61  1  0.09099800  0.89183200  0.46632200  1
  O  O62  1  0.26451100  0.03761000  0.30773700  1
  O  O63  1  0.52210400  0.62296800  0.73234000  1
  O  O64  1  0.33058400  0.39488500  0.93233200  1
  O  O65  1  0.24761800  0.64265200  0.68764500  1
  O  O66  1  0.44582100  0.78392200  0.54396600  1
  O  O67  1  0.98619100  0.01625900  0.28624900  1
  O  O68  1  0.48619100  0.98374100  0.21375100  1
  O  O69  1  0.94582100  0.21607800  0.95603400  1
  O  O70  1  0.74761800  0.35734800  0.81235500  1
  O  O71  1  0.83058400  0.60511500  0.56766800  1
  O  O72  1  0.02210400  0.37703200  0.76766000  1
  O  O73  1  0.76451100  0.96239000  0.19226300  1
  O  O74  1  0.59099800  0.10816800  0.03367800  1
  O  O75  1  0.65987300  0.71736900  0.41719900  1
  O  O76  1  0.40503400  0.23673600  0.82733900  1
  O  O77  1  0.10999900  0.91810000  0.15034200  1
  O  O78  1  0.32904500  0.62867600  0.42482900  1
  O  O79  1  0.13004700  0.46600700  0.57004900  1
