# generated using pymatgen
data_Li2Cr2(PO4)3
_symmetry_space_group_name_H-M   'P 1'
_cell_length_a   8.31952000
_cell_length_b   8.36566171
_cell_length_c   8.90464345
_cell_angle_alpha   62.19180908
_cell_angle_beta   62.38856400
_cell_angle_gamma   60.34550516
_symmetry_Int_Tables_number   1
_chemical_formula_structural   Li2Cr2(PO4)3
_chemical_formula_sum   'Li4 Cr4 P6 O24'
_cell_volume   454.03310725
_cell_formula_units_Z   2
loop_
 _symmetry_equiv_pos_site_id
 _symmetry_equiv_pos_as_xyz
  1  'x, y, z'
loop_
 _atom_site_type_symbol
 _atom_site_label
 _atom_site_symmetry_multiplicity
 _atom_site_fract_x
 _atom_site_fract_y
 _atom_site_fract_z
 _atom_site_occupancy
  Li  Li0  1  0.33090800  0.07633900  0.85613100  1
  Li  Li1  1  0.08082600  0.73705700  0.86521700  1
  Li  Li2  1  0.91917400  0.26294300  0.13478300  1
  Li  Li3  1  0.66909200  0.92366100  0.14386900  1
  Cr  Cr4  1  0.35359200  0.35100500  0.94990700  1
  Cr  Cr5  1  0.14369100  0.14766200  0.56862500  1
  Cr  Cr6  1  0.85630900  0.85233800  0.43137500  1
  Cr  Cr7  1  0.64640800  0.64899500  0.05009300  1
  P  P8  1  0.75225500  0.03616400  0.75059400  1
  P  P9  1  0.03544600  0.46347700  0.75043500  1
  P  P10  1  0.46687000  0.74724500  0.74804500  1
  P  P11  1  0.53313000  0.25275500  0.25195500  1
  P  P12  1  0.96455400  0.53652300  0.24956500  1
  P  P13  1  0.24774500  0.96383600  0.24940600  1
  O  O14  1  0.53783500  0.17060200  0.79979700  1
  O  O15  1  0.89431800  0.11866800  0.72604800  1
  O  O16  1  0.84421700  0.46703900  0.90913300  1
  O  O17  1  0.13225800  0.25588700  0.73514400  1
  O  O18  1  0.80139900  0.99593400  0.58035000  1
  O  O19  1  0.17181700  0.49513800  0.80141500  1
  O  O20  1  0.49023800  0.53621800  0.80463600  1
  O  O21  1  0.48617300  0.79468200  0.88949500  1
  O  O22  1  0.78688000  0.84224100  0.91193800  1
  O  O23  1  0.38367900  0.19751500  0.43010100  1
  O  O24  1  0.74170300  0.11627200  0.26397100  1
  O  O25  1  0.00492500  0.61435500  0.57627100  1
  O  O26  1  0.99507500  0.38564500  0.42372900  1
  O  O27  1  0.25829700  0.88372800  0.73602900  1
  O  O28  1  0.61632100  0.80248500  0.56989900  1
  O  O29  1  0.21312000  0.15775900  0.08806200  1
  O  O30  1  0.51382700  0.20531800  0.11050500  1
  O  O31  1  0.50976200  0.46378200  0.19536400  1
  O  O32  1  0.82818300  0.50486200  0.19858500  1
  O  O33  1  0.19860100  0.00406600  0.41965000  1
  O  O34  1  0.86774200  0.74411300  0.26485600  1
  O  O35  1  0.15578300  0.53296100  0.09086700  1
  O  O36  1  0.10568200  0.88133200  0.27395200  1
  O  O37  1  0.46216500  0.82939800  0.20020300  1
