# generated using pymatgen
data_LiMn2(BO3)2
_symmetry_space_group_name_H-M   'P 1'
_cell_length_a   5.30435400
_cell_length_b   9.14812549
_cell_length_c   11.54236497
_cell_angle_alpha   112.63512446
_cell_angle_beta   101.95435243
_cell_angle_gamma   89.53638024
_symmetry_Int_Tables_number   1
_chemical_formula_structural   LiMn2(BO3)2
_chemical_formula_sum   'Li4 Mn8 B8 O24'
_cell_volume   504.14590684
_cell_formula_units_Z   4
loop_
 _symmetry_equiv_pos_site_id
 _symmetry_equiv_pos_as_xyz
  1  'x, y, z'
loop_
 _atom_site_type_symbol
 _atom_site_label
 _atom_site_symmetry_multiplicity
 _atom_site_fract_x
 _atom_site_fract_y
 _atom_site_fract_z
 _atom_site_occupancy
  Li  Li0  1  0.69211000  0.83718100  0.66673700  1
  Li  Li1  1  0.45262300  0.57733600  0.16894400  1
  Li  Li2  1  0.32533800  0.15559600  0.34815900  1
  Li  Li3  1  0.17071300  0.33086000  0.65685300  1
  Mn  Mn4  1  0.92200300  0.75547900  0.13291500  1
  Mn  Mn5  1  0.85654600  0.35236000  0.37836000  1
  Mn  Mn6  1  0.65521400  0.14494900  0.62811900  1
  Mn  Mn7  1  0.41917600  0.23378100  0.13133300  1
  Mn  Mn8  1  0.59555800  0.78181800  0.88183000  1
  Mn  Mn9  1  0.34468600  0.84190800  0.38660700  1
  Mn  Mn10  1  0.16738000  0.63884200  0.62724400  1
  Mn  Mn11  1  0.08547700  0.28261100  0.88603200  1
  B  B12  1  0.90237600  0.41280100  0.13336000  1
  B  B13  1  0.85645300  0.02110200  0.38229300  1
  B  B14  1  0.64931300  0.47897100  0.62691000  1
  B  B15  1  0.40479100  0.89366300  0.13880800  1
  B  B16  1  0.58932100  0.11431300  0.86879600  1
  B  B17  1  0.35600600  0.50253700  0.37275300  1
  B  B18  1  0.14614300  0.97454800  0.62753600  1
  B  B19  1  0.09604000  0.61638300  0.86763500  1
  O  O20  1  0.92642500  0.86673100  0.32009700  1
  O  O21  1  0.78247600  0.54065500  0.12557200  1
  O  O22  1  0.79976500  0.30988400  0.17935000  1
  O  O23  1  0.88230000  0.46386200  0.58588300  1
  O  O24  1  0.60330900  0.84331000  0.07549700  1
  O  O25  1  0.93855600  0.69360100  0.95248800  1
  O  O26  1  0.63220700  0.03852600  0.43566300  1
  O  O27  1  0.67620300  0.96941900  0.84091700  1
  O  O28  1  0.45944800  0.61932200  0.34996500  1
  O  O29  1  0.67116600  0.21719200  0.81501800  1
  O  O30  1  0.43293500  0.34451600  0.32170200  1
  O  O31  1  0.55962600  0.63209200  0.67067000  1
  O  O32  1  0.31629300  0.03887200  0.16214200  1
  O  O33  1  0.51114300  0.34953000  0.62008000  1
  O  O34  1  0.30552800  0.78504000  0.18237100  1
  O  O35  1  0.38451500  0.96139200  0.58853600  1
  O  O36  1  0.13824000  0.37743200  0.09273900  1
  O  O37  1  0.41088300  0.17299800  0.94758200  1
  O  O38  1  0.16809800  0.52365100  0.44504600  1
  O  O39  1  0.18679900  0.71253000  0.81075200  1
  O  O40  1  0.00029900  0.14998400  0.39465900  1
  O  O41  1  0.15352300  0.46453000  0.83577200  1
  O  O42  1  0.04891200  0.12543800  0.66879100  1
  O  O43  1  0.01669000  0.84313900  0.62039400  1
