# generated using pymatgen
data_Li3V3P8O29
_symmetry_space_group_name_H-M   'P 1'
_cell_length_a   9.75202400
_cell_length_b   9.76189748
_cell_length_c   14.15339071
_cell_angle_alpha   90.18964684
_cell_angle_beta   90.05553729
_cell_angle_gamma   119.78735358
_symmetry_Int_Tables_number   1
_chemical_formula_structural   Li3V3P8O29
_chemical_formula_sum   'Li6 V6 P16 O58'
_cell_volume   1169.34427077
_cell_formula_units_Z   2
loop_
 _symmetry_equiv_pos_site_id
 _symmetry_equiv_pos_as_xyz
  1  'x, y, z'
loop_
 _atom_site_type_symbol
 _atom_site_label
 _atom_site_symmetry_multiplicity
 _atom_site_fract_x
 _atom_site_fract_y
 _atom_site_fract_z
 _atom_site_occupancy
  Li  Li0  1  0.66244100  0.32682000  0.61041500  1
  Li  Li1  1  0.91571800  0.68629900  0.44598700  1
  Li  Li2  1  0.09303400  0.76858800  0.05247300  1
  Li  Li3  1  0.67355900  0.90718900  0.05529100  1
  Li  Li4  1  0.03068900  0.04627000  0.99028400  1
  Li  Li5  1  0.01178300  0.04671000  0.51356100  1
  V  V6  1  0.00153800  0.42871100  0.75235800  1
  V  V7  1  0.00101500  0.55845100  0.24890600  1
  V  V8  1  0.43457700  0.43529600  0.24815600  1
  V  V9  1  0.56419100  0.56608500  0.75282400  1
  V  V10  1  0.43032900  0.99872900  0.74889100  1
  V  V11  1  0.56271900  0.00070800  0.25795100  1
  P  P12  1  0.30784000  0.08252000  0.16049400  1
  P  P13  1  0.30759900  0.22094100  0.65600500  1
  P  P14  1  0.78099700  0.08761600  0.65702700  1
  P  P15  1  0.66736400  0.33250800  0.86875600  1
  P  P16  1  0.66755600  0.33816100  0.36936200  1
  P  P17  1  0.91164200  0.21685700  0.15752500  1
  P  P18  1  0.08588200  0.30536500  0.34227000  1
  P  P19  1  0.77531400  0.69079600  0.15696200  1
  P  P20  1  0.22404700  0.30305900  0.84238400  1
  P  P21  1  0.90552200  0.68184400  0.65888700  1
  P  P22  1  0.08522400  0.77425700  0.83984400  1
  P  P23  1  0.33077000  0.66460300  0.63109500  1
  P  P24  1  0.33659400  0.67043000  0.13249200  1
  P  P25  1  0.21963700  0.91349000  0.34532700  1
  P  P26  1  0.69143200  0.77283700  0.34252400  1
  P  P27  1  0.68960800  0.91655600  0.84108300  1
  O  O28  1  0.20844600  0.98883700  0.43271000  1
  O  O29  1  0.34738600  0.08380300  0.66567900  1
  O  O30  1  0.20495200  0.20872900  0.92754700  1
  O  O31  1  0.34733300  0.25700400  0.16719200  1
  O  O32  1  0.46438600  0.07909700  0.17552800  1
  O  O33  1  0.52451200  0.18440300  0.82073800  1
  O  O34  1  0.62610000  0.09624600  0.66533000  1
  O  O35  1  0.77044700  0.98509000  0.93252000  1
  O  O36  1  0.73647600  0.08244700  0.16597000  1
  O  O37  1  0.52222400  0.33726200  0.32373400  1
  O  O38  1  0.46989100  0.37477700  0.66644800  1
  O  O39  1  0.66711500  0.18797500  0.32704400  1
  O  O40  1  0.66925700  0.33369800  0.97300700  1
  O  O41  1  0.67191100  0.34422500  0.47455600  1
  O  O42  1  0.81735200  0.33742600  0.82303100  1
  O  O43  1  0.61646600  0.53445400  0.17106200  1
  O  O44  1  0.66188700  0.47627100  0.82184700  1
  O  O45  1  0.91865400  0.26309700  0.66657400  1
  O  O46  1  0.99645700  0.19915500  0.25076000  1
  O  O47  1  0.00873900  0.22235200  0.42968200  1
  O  O48  1  0.98876400  0.20575800  0.07077800  1
  O  O49  1  0.91574700  0.37939900  0.17360600  1
  O  O50  1  0.81811400  0.48743800  0.32783700  1
  O  O51  1  0.08833200  0.34420200  0.83243400  1
  O  O52  1  0.89445000  0.51872600  0.67050600  1
  O  O53  1  0.73312100  0.65144900  0.66813300  1
  O  O54  1  0.20535000  0.20083700  0.74950500  1
  O  O55  1  0.21007000  0.20182900  0.57202500  1
  O  O56  1  0.78430400  0.78072100  0.42715300  1
  O  O57  1  0.26027700  0.34697500  0.32953500  1
  O  O58  1  0.08346600  0.46448300  0.32468700  1
  O  O59  1  0.91402800  0.65405000  0.16077800  1
  O  O60  1  0.17926800  0.52531400  0.67736300  1
  O  O61  1  0.08333700  0.61675800  0.82598400  1
  O  O62  1  0.01451600  0.78752200  0.93004700  1
  O  O63  1  0.98226400  0.76721500  0.57070400  1
  O  O64  1  0.99500300  0.79152700  0.74948700  1
  O  O65  1  0.08341500  0.73775700  0.33533300  1
  O  O66  1  0.33442400  0.52248600  0.17704900  1
  O  O67  1  0.38345000  0.45776300  0.83047200  1
  O  O68  1  0.18493600  0.67154700  0.17452400  1
  O  O69  1  0.33483000  0.67518400  0.02769600  1
  O  O70  1  0.33037800  0.66541500  0.52701500  1
  O  O71  1  0.34365000  0.81824900  0.67654800  1
  O  O72  1  0.53426000  0.61540200  0.32749000  1
  O  O73  1  0.46921500  0.65155400  0.67931300  1
  O  O74  1  0.25822800  0.91355000  0.82975400  1
  O  O75  1  0.20181100  0.99917700  0.25288000  1
  O  O76  1  0.21371200  0.99596100  0.07594500  1
  O  O77  1  0.38091500  0.91536100  0.32918400  1
  O  O78  1  0.48650400  0.81722300  0.17524000  1
  O  O79  1  0.53402700  0.91816000  0.82520000  1
  O  O80  1  0.65367100  0.74221500  0.83038600  1
  O  O81  1  0.78250400  0.78622200  0.07366600  1
  O  O82  1  0.79856400  0.79434200  0.25086300  1
  O  O83  1  0.65276700  0.90963900  0.33401300  1
  O  O84  1  0.80228000  0.00717500  0.57473600  1
  O  O85  1  0.80053000  0.00935900  0.75409900  1
