# generated using pymatgen
data_Li3Mn5Cr2O12
_symmetry_space_group_name_H-M   'P 1'
_cell_length_a   5.23144735
_cell_length_b   5.23144735
_cell_length_c   10.07266109
_cell_angle_alpha   84.67300705
_cell_angle_beta   84.67300705
_cell_angle_gamma   121.69202410
_symmetry_Int_Tables_number   1
_chemical_formula_structural   Li3Mn5Cr2O12
_chemical_formula_sum   'Li3 Mn5 Cr2 O12'
_cell_volume   230.26355632
_cell_formula_units_Z   1
loop_
 _symmetry_equiv_pos_site_id
 _symmetry_equiv_pos_as_xyz
  1  'x, y, z'
loop_
 _atom_site_type_symbol
 _atom_site_label
 _atom_site_symmetry_multiplicity
 _atom_site_fract_x
 _atom_site_fract_y
 _atom_site_fract_z
 _atom_site_occupancy
  Li  Li0  1  0.68323500  0.84620700  0.73368100  1
  Li  Li1  1  0.15379300  0.31676500  0.26631900  1
  Li  Li2  1  0.08180600  0.91819400  0.50000000  1
  Mn  Mn3  1  0.91820600  0.08179400  0.00000000  1
  Mn  Mn4  1  0.58336600  0.41663400  0.00000000  1
  Mn  Mn5  1  0.42347800  0.57652200  0.50000000  1
  Mn  Mn6  1  0.48414000  0.00115900  0.26047700  1
  Mn  Mn7  1  0.99884100  0.51586000  0.73952300  1
  Cr  Cr8  1  0.74405400  0.25594600  0.50000000  1
  Cr  Cr9  1  0.24960600  0.75039400  0.00000000  1
  O  O10  1  0.87961800  0.36253200  0.11432500  1
  O  O11  1  0.94248300  0.76438300  0.89023100  1
  O  O12  1  0.63746800  0.12038200  0.88567500  1
  O  O13  1  0.71195100  0.54954300  0.60694400  1
  O  O14  1  0.45045700  0.28804900  0.39305600  1
  O  O15  1  0.75357400  0.96058400  0.38662800  1
  O  O16  1  0.23561700  0.05751700  0.10976900  1
  O  O17  1  0.54407800  0.73261000  0.10600300  1
  O  O18  1  0.39702100  0.85084200  0.61321000  1
  O  O19  1  0.26739000  0.45592200  0.89399700  1
  O  O20  1  0.03941600  0.24642600  0.61337200  1
  O  O21  1  0.14915800  0.60297900  0.38679000  1
