# generated using pymatgen
data_Li9V5(Si5O16)2
_symmetry_space_group_name_H-M   'P 1'
_cell_length_a   8.05978314
_cell_length_b   8.05978314
_cell_length_c   8.11086187
_cell_angle_alpha   88.74520181
_cell_angle_beta   88.74520181
_cell_angle_gamma   89.04765774
_symmetry_Int_Tables_number   1
_chemical_formula_structural   Li9V5(Si5O16)2
_chemical_formula_sum   'Li9 V5 Si10 O32'
_cell_volume   526.56109300
_cell_formula_units_Z   1
loop_
 _symmetry_equiv_pos_site_id
 _symmetry_equiv_pos_as_xyz
  1  'x, y, z'
loop_
 _atom_site_type_symbol
 _atom_site_label
 _atom_site_symmetry_multiplicity
 _atom_site_fract_x
 _atom_site_fract_y
 _atom_site_fract_z
 _atom_site_occupancy
  Li  Li0  1  0.49329200  0.74640500  0.63361000  1
  Li  Li1  1  0.25359500  0.50670800  0.36639000  1
  Li  Li2  1  0.75391200  0.00388500  0.37665900  1
  Li  Li3  1  0.49814500  0.25523900  0.11720000  1
  Li  Li4  1  0.00663800  0.74192000  0.12228000  1
  Li  Li5  1  0.37549000  0.62451000  0.00000000  1
  Li  Li6  1  0.25808000  0.99336200  0.87772000  1
  Li  Li7  1  0.74476100  0.50185500  0.88280000  1
  Li  Li8  1  0.99611500  0.24608800  0.62334100  1
  V  V9  1  0.86586000  0.62805300  0.51018200  1
  V  V10  1  0.12810100  0.87189900  0.50000000  1
  V  V11  1  0.37194700  0.13414000  0.48981800  1
  V  V12  1  0.87043600  0.37645100  0.24768200  1
  V  V13  1  0.62354900  0.12956400  0.75231800  1
  Si  Si14  1  0.61152100  0.38847900  0.50000000  1
  Si  Si15  1  0.61543700  0.63101900  0.24920000  1
  Si  Si16  1  0.38027100  0.87741800  0.23681500  1
  Si  Si17  1  0.13282500  0.11903900  0.23294300  1
  Si  Si18  1  0.63036900  0.86833800  0.00882500  1
  Si  Si19  1  0.88393900  0.11606100  0.00000000  1
  Si  Si20  1  0.13166200  0.36963100  0.99117500  1
  Si  Si21  1  0.88096100  0.86717500  0.76705700  1
  Si  Si22  1  0.12258200  0.61972900  0.76318500  1
  Si  Si23  1  0.36898100  0.38456300  0.75080000  1
  O  O24  1  0.87873800  0.87442900  0.54644700  1
  O  O25  1  0.38757000  0.38071500  0.52118000  1
  O  O26  1  0.61940200  0.16452500  0.50576600  1
  O  O27  1  0.37361600  0.88987200  0.46380900  1
  O  O28  1  0.11012800  0.62638400  0.53619100  1
  O  O29  1  0.83547500  0.38059800  0.49423400  1
  O  O30  1  0.61928500  0.61243000  0.47882000  1
  O  O31  1  0.12557100  0.12126200  0.45355300  1
  O  O32  1  0.84245500  0.62000400  0.25929800  1
  O  O33  1  0.35550300  0.10551700  0.23815000  1
  O  O34  1  0.15472600  0.89289100  0.23959600  1
  O  O35  1  0.90634300  0.11859800  0.22214600  1
  O  O36  1  0.61257800  0.40601700  0.27299800  1
  O  O37  1  0.39732300  0.66068900  0.24910000  1
  O  O38  1  0.61502300  0.86548800  0.23726500  1
  O  O39  1  0.12908600  0.34598500  0.21208400  1
  O  O40  1  0.63372800  0.65124100  0.03311600  1
  O  O41  1  0.11230300  0.13235300  0.00717700  1
  O  O42  1  0.89624300  0.33882700  0.99685500  1
  O  O43  1  0.11400500  0.58512200  0.97985600  1
  O  O44  1  0.41487800  0.88599500  0.02014400  1
  O  O45  1  0.66117300  0.10375700  0.00314500  1
  O  O46  1  0.86764700  0.88769700  0.99282300  1
  O  O47  1  0.34875900  0.36627200  0.96688400  1
  O  O48  1  0.65401500  0.87091400  0.78791600  1
  O  O49  1  0.13451200  0.38497700  0.76273500  1
  O  O50  1  0.33931100  0.60267700  0.75090000  1
  O  O51  1  0.59398300  0.38742200  0.72700200  1
  O  O52  1  0.88140200  0.09365700  0.77785400  1
  O  O53  1  0.10710900  0.84527400  0.76040400  1
  O  O54  1  0.89448300  0.64449700  0.76185000  1
  O  O55  1  0.37999600  0.15754500  0.74070200  1
