# generated using pymatgen
data_LiMnPO4
_symmetry_space_group_name_H-M   'P 1'
_cell_length_a   5.06954000
_cell_length_b   9.39589000
_cell_length_c   6.42300500
_cell_angle_alpha   90.00017458
_cell_angle_beta   90.00000000
_cell_angle_gamma   90.00016449
_symmetry_Int_Tables_number   1
_chemical_formula_structural   LiMnPO4
_chemical_formula_sum   'Li4 Mn4 P4 O16'
_cell_volume   305.94597071
_cell_formula_units_Z   4
loop_
 _symmetry_equiv_pos_site_id
 _symmetry_equiv_pos_as_xyz
  1  'x, y, z'
loop_
 _atom_site_type_symbol
 _atom_site_label
 _atom_site_symmetry_multiplicity
 _atom_site_fract_x
 _atom_site_fract_y
 _atom_site_fract_z
 _atom_site_occupancy
  Li  Li0  1  0.00002700  0.00000700  0.00000100  1
  Li  Li1  1  0.00002800  0.00000700  0.50000100  1
  Li  Li2  1  0.50002400  0.49999400  0.00000100  1
  Li  Li3  1  0.50002500  0.49999400  0.50000200  1
  Mn  Mn4  1  0.02645800  0.64749500  0.74998900  1
  Mn  Mn5  1  0.52653700  0.85248800  0.25000800  1
  Mn  Mn6  1  0.47324000  0.14744900  0.75002900  1
  Mn  Mn7  1  0.97325500  0.35254300  0.24996800  1
  P  P8  1  0.46111700  0.18031700  0.25000400  1
  P  P9  1  0.96111700  0.31968600  0.74999700  1
  P  P10  1  0.03893400  0.68028900  0.25000000  1
  P  P11  1  0.53892600  0.81971300  0.75000000  1
  O  O12  1  0.76260500  0.15074600  0.24999900  1
  O  O13  1  0.26260800  0.34925500  0.75000300  1
  O  O14  1  0.73745000  0.65072400  0.25000300  1
  O  O15  1  0.23744900  0.84928200  0.74999900  1
  O  O16  1  0.89947000  0.15603700  0.75000100  1
  O  O17  1  0.39947300  0.34396500  0.24999900  1
  O  O18  1  0.60052600  0.65605700  0.74999700  1
  O  O19  1  0.10053100  0.84394600  0.25000200  1
  O  O20  1  0.33076400  0.11170200  0.05526400  1
  O  O21  1  0.33076300  0.11170400  0.44474200  1
  O  O22  1  0.83076200  0.38829900  0.94473700  1
  O  O23  1  0.83076600  0.38829800  0.55525700  1
  O  O24  1  0.16928200  0.61167900  0.05525700  1
  O  O25  1  0.16928700  0.61168000  0.44474100  1
  O  O26  1  0.66928900  0.88832200  0.55526400  1
  O  O27  1  0.66928800  0.88832300  0.94473600  1
