# generated using pymatgen
data_Li4Ni(PO3)6
_symmetry_space_group_name_H-M   'P 1'
_cell_length_a   7.30581800
_cell_length_b   7.46753060
_cell_length_c   7.60253120
_cell_angle_alpha   105.77707177
_cell_angle_beta   99.50111124
_cell_angle_gamma   114.41502321
_symmetry_Int_Tables_number   1
_chemical_formula_structural   Li4Ni(PO3)6
_chemical_formula_sum   'Li4 Ni1 P6 O18'
_cell_volume   344.74863280
_cell_formula_units_Z   1
loop_
 _symmetry_equiv_pos_site_id
 _symmetry_equiv_pos_as_xyz
  1  'x, y, z'
loop_
 _atom_site_type_symbol
 _atom_site_label
 _atom_site_symmetry_multiplicity
 _atom_site_fract_x
 _atom_site_fract_y
 _atom_site_fract_z
 _atom_site_occupancy
  Li  Li0  1  0.64031000  0.46072200  0.85744800  1
  Li  Li1  1  0.52290700  0.98762000  0.45469000  1
  Li  Li2  1  0.37196700  0.55752800  0.15851200  1
  Li  Li3  1  0.77137300  0.92721000  0.11427900  1
  Ni  Ni4  1  0.22504500  0.07737100  0.84094700  1
  P  P5  1  0.97079600  0.30279600  0.76611600  1
  P  P6  1  0.32874300  0.68231700  0.79346100  1
  P  P7  1  0.21976500  0.27511700  0.51460000  1
  P  P8  1  0.79173100  0.73240400  0.49885600  1
  P  P9  1  0.66148800  0.31451200  0.21812100  1
  P  P10  1  0.01479300  0.68753300  0.21910000  1
  O  O11  1  0.09918200  0.26768900  0.91936000  1
  O  O12  1  0.49142500  0.68346900  0.94476900  1
  O  O13  1  0.09513000  0.55428900  0.80858000  1
  O  O14  1  0.74254700  0.23692200  0.73752700  1
  O  O15  1  0.35328200  0.23105100  0.65693800  1
  O  O16  1  0.99377300  0.20331200  0.55853000  1
  O  O17  1  0.34915500  0.88476400  0.77878500  1
  O  O18  1  0.88742100  0.83459700  0.71422200  1
  O  O19  1  0.31273200  0.53236700  0.58514300  1
  O  O20  1  0.69259000  0.47513100  0.42878200  1
  O  O21  1  0.18127300  0.18697100  0.30540500  1
  O  O22  1  0.63781000  0.11284700  0.23562400  1
  O  O23  1  0.99617500  0.79894000  0.42426600  1
  O  O24  1  0.62967800  0.77344300  0.39356000  1
  O  O25  1  0.24271200  0.74650600  0.24956400  1
  O  O26  1  0.88992700  0.43730900  0.19107600  1
  O  O27  1  0.49700300  0.31495400  0.06594600  1
  O  O28  1  0.88927000  0.72030900  0.06579400  1
