# generated using pymatgen
data_Li3V3Cr2O10
_symmetry_space_group_name_H-M   'P 1'
_cell_length_a   5.11546296
_cell_length_b   7.82862141
_cell_length_c   10.33565708
_cell_angle_alpha   106.58594910
_cell_angle_beta   100.80451566
_cell_angle_gamma   73.88202671
_symmetry_Int_Tables_number   1
_chemical_formula_structural   Li3V3Cr2O10
_chemical_formula_sum   'Li6 V6 Cr4 O20'
_cell_volume   378.45615731
_cell_formula_units_Z   2
loop_
 _symmetry_equiv_pos_site_id
 _symmetry_equiv_pos_as_xyz
  1  'x, y, z'
loop_
 _atom_site_type_symbol
 _atom_site_label
 _atom_site_symmetry_multiplicity
 _atom_site_fract_x
 _atom_site_fract_y
 _atom_site_fract_z
 _atom_site_occupancy
  Li  Li0  1  0.99999700  0.49999900  0.24999800  1
  Li  Li1  1  0.00000200  0.50000300  0.75000400  1
  Li  Li2  1  0.50805800  0.42689200  0.10540500  1
  Li  Li3  1  0.50806700  0.42686600  0.60540300  1
  Li  Li4  1  0.49193200  0.57313300  0.39460000  1
  Li  Li5  1  0.49194000  0.57310800  0.89459700  1
  V  V6  1  0.50000100  0.00000000  0.50000000  1
  V  V7  1  0.99447400  0.88196900  0.34084200  1
  V  V8  1  0.00553000  0.11803300  0.65915700  1
  V  V9  1  0.50000300  0.99999400  0.99999900  1
  V  V10  1  0.99445700  0.88192200  0.84085000  1
  V  V11  1  0.00554300  0.11808300  0.15914700  1
  Cr  Cr12  1  0.01225900  0.69103100  0.05253200  1
  Cr  Cr13  1  0.98773400  0.30896900  0.94747200  1
  Cr  Cr14  1  0.01225200  0.69104200  0.55248500  1
  Cr  Cr15  1  0.98774800  0.30895800  0.44750600  1
  O  O16  1  0.23371000  0.86291900  0.01536000  1
  O  O17  1  0.23368600  0.86292000  0.51537500  1
  O  O18  1  0.76631100  0.13708000  0.48462500  1
  O  O19  1  0.76628700  0.13708000  0.98464200  1
  O  O20  1  0.80170800  0.94002300  0.16313300  1
  O  O21  1  0.80167700  0.94001900  0.66312600  1
  O  O22  1  0.19832500  0.05998000  0.33687500  1
  O  O23  1  0.19829300  0.05997900  0.83687000  1
  O  O24  1  0.77914600  0.53230800  0.05748300  1
  O  O25  1  0.77914400  0.53232600  0.55749300  1
  O  O26  1  0.22086200  0.46767100  0.44250200  1
  O  O27  1  0.22085000  0.46769300  0.94252000  1
  O  O28  1  0.24738900  0.22101500  0.11203500  1
  O  O29  1  0.24737200  0.22100000  0.61204700  1
  O  O30  1  0.75263200  0.77899900  0.38795100  1
  O  O31  1  0.75261500  0.77898300  0.88796500  1
  O  O32  1  0.20586400  0.67235100  0.23601700  1
  O  O33  1  0.20585200  0.67236200  0.73601000  1
  O  O34  1  0.79414400  0.32764200  0.26398900  1
  O  O35  1  0.79413500  0.32764900  0.76398400  1
