# generated using pymatgen
data_Li7Fe5OF15
_symmetry_space_group_name_H-M   'P 1'
_cell_length_a   9.96243100
_cell_length_b   10.07084860
_cell_length_c   10.37461485
_cell_angle_alpha   107.71409983
_cell_angle_beta   107.58380006
_cell_angle_gamma   110.17436604
_symmetry_Int_Tables_number   1
_chemical_formula_structural   Li7Fe5OF15
_chemical_formula_sum   'Li14 Fe10 O2 F30'
_cell_volume   828.67488752
_cell_formula_units_Z   2
loop_
 _symmetry_equiv_pos_site_id
 _symmetry_equiv_pos_as_xyz
  1  'x, y, z'
loop_
 _atom_site_type_symbol
 _atom_site_label
 _atom_site_symmetry_multiplicity
 _atom_site_fract_x
 _atom_site_fract_y
 _atom_site_fract_z
 _atom_site_occupancy
  Li  Li0  1  0.88767000  0.14621400  0.25004100  1
  Li  Li1  1  0.51516900  0.00675500  0.04631800  1
  Li  Li2  1  0.48765300  0.46424100  0.97641100  1
  Li  Li3  1  0.48250000  0.00513400  0.53309800  1
  Li  Li4  1  0.00781900  0.05819900  0.01466900  1
  Li  Li5  1  0.25705700  0.63256500  0.89313100  1
  Li  Li6  1  0.96850300  0.98329000  0.47007400  1
  Li  Li7  1  0.64509700  0.39188700  0.74899300  1
  Li  Li8  1  0.98109000  0.52797200  0.98038000  1
  Li  Li9  1  0.73969400  0.85836900  0.61262400  1
  Li  Li10  1  0.04565200  0.48698900  0.48240700  1
  Li  Li11  1  0.37329200  0.25052900  0.10731500  1
  Li  Li12  1  0.13555700  0.74928700  0.38692100  1
  Li  Li13  1  0.54027700  0.49126500  0.51136800  1
  Fe  Fe14  1  0.24407600  0.37085500  0.64340300  1
  Fe  Fe15  1  0.64126600  0.26690100  0.35695000  1
  Fe  Fe16  1  0.09144600  0.23321000  0.83348700  1
  Fe  Fe17  1  0.73411000  0.10859400  0.85529700  1
  Fe  Fe18  1  0.63107000  0.92353600  0.27342100  1
  Fe  Fe19  1  0.34273100  0.13838500  0.73020000  1
  Fe  Fe20  1  0.23825900  0.87241300  0.13038500  1
  Fe  Fe21  1  0.38562300  0.74164000  0.64632800  1
  Fe  Fe22  1  0.88226000  0.75534200  0.13995400  1
  Fe  Fe23  1  0.74618200  0.61918400  0.36585500  1
  O  O24  1  0.69051000  0.11680400  0.25469500  1
  O  O25  1  0.14434800  0.16066500  0.66192800  1
  F  F26  1  0.06160100  0.29880400  0.44557000  1
  F  F27  1  0.37794800  0.07275600  0.12405300  1
  F  F28  1  0.43412000  0.93830900  0.32905000  1
  F  F29  1  0.89251300  0.01974900  0.80110600  1
  F  F30  1  0.28325100  0.46079200  0.90117800  1
  F  F31  1  0.21623700  0.59195500  0.69466800  1
  F  F32  1  0.17710200  0.23726100  0.03947400  1
  F  F33  1  0.66497500  0.62552700  0.16158400  1
  F  F34  1  0.58927300  0.18278600  0.74283700  1
  F  F35  1  0.85843500  0.12296400  0.05326400  1
  F  F36  1  0.92962600  0.31098400  0.87323200  1
  F  F37  1  0.50712500  0.94764000  0.84775200  1
  F  F38  1  0.59760100  0.33547900  0.54025000  1
  F  F39  1  0.86670700  0.94783100  0.25705200  1
  F  F40  1  0.43867000  0.80720800  0.05805900  1
  F  F41  1  0.10554300  0.67204200  0.93196000  1
  F  F42  1  0.74287500  0.87941800  0.44020700  1
  F  F43  1  0.79654800  0.55782100  0.94787100  1
  F  F44  1  0.42367400  0.54565900  0.61030600  1
  F  F45  1  0.46125800  0.38433700  0.77093000  1
  F  F46  1  0.08553200  0.70818200  0.18762300  1
  F  F47  1  0.04587700  0.92138200  0.09771400  1
  F  F48  1  0.19618600  0.61650500  0.44027000  1
  F  F49  1  0.44603400  0.25874600  0.96262100  1
  F  F50  1  0.57014200  0.89282800  0.61686900  1
  F  F51  1  0.29663900  0.93855300  0.56456400  1
  F  F52  1  0.84137000  0.47270900  0.40131400  1
  F  F53  1  0.52743900  0.41077800  0.30438600  1
  F  F54  1  0.96028400  0.77971900  0.38529200  1
  F  F55  1  0.73362100  0.66816600  0.56328800  1
