# generated using pymatgen
data_Li9Cr19O48
_symmetry_space_group_name_H-M   'P 1'
_cell_length_a   5.05405400
_cell_length_b   10.18300069
_cell_length_c   17.29302586
_cell_angle_alpha   89.99226151
_cell_angle_beta   89.82386839
_cell_angle_gamma   89.96698305
_symmetry_Int_Tables_number   1
_chemical_formula_structural   Li9Cr19O48
_chemical_formula_sum   'Li9 Cr19 O48'
_cell_volume   889.98874407
_cell_formula_units_Z   1
loop_
 _symmetry_equiv_pos_site_id
 _symmetry_equiv_pos_as_xyz
  1  'x, y, z'
loop_
 _atom_site_type_symbol
 _atom_site_label
 _atom_site_symmetry_multiplicity
 _atom_site_fract_x
 _atom_site_fract_y
 _atom_site_fract_z
 _atom_site_occupancy
  Li  Li0  1  0.25398300  0.57911200  0.02964900  1
  Li  Li1  1  0.24560800  0.24874500  0.69851500  1
  Li  Li2  1  0.25389900  0.75378400  0.19670200  1
  Li  Li3  1  0.24870800  0.41980700  0.52868600  1
  Li  Li4  1  0.40177600  0.25018800  0.24837900  1
  Li  Li5  1  0.59689400  0.74985400  0.75144100  1
  Li  Li6  1  0.75121200  0.91972800  0.47120300  1
  Li  Li7  1  0.74597300  0.24719300  0.80172300  1
  Li  Li8  1  0.75665600  0.75286500  0.30015500  1
  Cr  Cr9  1  0.09609100  0.75118700  0.74777600  1
  Cr  Cr10  1  0.20642700  0.25215300  0.05835800  1
  Cr  Cr11  1  0.22165300  0.97398600  0.34388700  1
  Cr  Cr12  1  0.21996000  0.52710300  0.34666600  1
  Cr  Cr13  1  0.25444500  0.92963300  0.02671400  1
  Cr  Cr14  1  0.24847500  0.06908400  0.52377900  1
  Cr  Cr15  1  0.27308200  0.47292400  0.84639000  1
  Cr  Cr16  1  0.27802300  0.02761600  0.84436700  1
  Cr  Cr17  1  0.27973800  0.74857100  0.55626300  1
  Cr  Cr18  1  0.72009800  0.24887200  0.44394400  1
  Cr  Cr19  1  0.72129600  0.97417700  0.15593300  1
  Cr  Cr20  1  0.72860000  0.52509000  0.15546300  1
  Cr  Cr21  1  0.75127500  0.56918200  0.47593900  1
  Cr  Cr22  1  0.74179500  0.43095000  0.97506100  1
  Cr  Cr23  1  0.74694900  0.07238700  0.97356200  1
  Cr  Cr24  1  0.77843800  0.47375400  0.65606400  1
  Cr  Cr25  1  0.77992500  0.02673300  0.65346900  1
  Cr  Cr26  1  0.79888600  0.75172800  0.94192100  1
  Cr  Cr27  1  0.90273600  0.24894700  0.25257000  1
  O  O28  1  0.05653900  0.75787700  0.00735000  1
  O  O29  1  0.04618200  0.39195200  0.63148300  1
  O  O30  1  0.05705500  0.10899500  0.62489800  1
  O  O31  1  0.10159300  0.37588200  0.79194700  1
  O  O32  1  0.09371000  0.12708100  0.79083200  1
  O  O33  1  0.09824700  0.88863300  0.53374600  1
  O  O34  1  0.07297800  0.61912300  0.53322500  1
  O  O35  1  0.07976400  0.99332100  0.92689600  1
  O  O36  1  0.08039800  0.50255600  0.92390500  1
  O  O37  1  0.13780300  0.25063100  0.15574900  1
  O  O38  1  0.14499600  0.38707200  0.29885300  1
  O  O39  1  0.14445400  0.11465800  0.29579800  1
  O  O40  1  0.33371100  0.88266100  0.79546500  1
  O  O41  1  0.33023100  0.61490600  0.79797600  1
  O  O42  1  0.33070500  0.74911500  0.65598100  1
  O  O43  1  0.40574100  0.00966400  0.42372800  1
  O  O44  1  0.41630800  0.49484600  0.42286400  1
  O  O45  1  0.41321000  0.10908500  0.03383500  1
  O  O46  1  0.42040900  0.37909000  0.03128400  1
  O  O47  1  0.41198400  0.88182000  0.28975600  1
  O  O48  1  0.39432600  0.62303600  0.29146600  1
  O  O49  1  0.43077200  0.89250200  0.12618800  1
  O  O50  1  0.45526800  0.60303000  0.13236900  1
  O  O51  1  0.44619100  0.23969600  0.50589100  1
  O  O52  1  0.55345600  0.73984700  0.49433000  1
  O  O53  1  0.55835100  0.39575200  0.87315600  1
  O  O54  1  0.55979700  0.11119900  0.87355500  1
  O  O55  1  0.59106200  0.38007700  0.71024300  1
  O  O56  1  0.60507800  0.12121200  0.70972200  1
  O  O57  1  0.58375100  0.88753800  0.96548100  1
  O  O58  1  0.60218600  0.61574100  0.96504900  1
  O  O59  1  0.58350300  0.99487900  0.57743300  1
  O  O60  1  0.59427400  0.50941100  0.57634900  1
  O  O61  1  0.66875600  0.24991700  0.34446100  1
  O  O62  1  0.66377600  0.38406300  0.20488700  1
  O  O63  1  0.66472900  0.12001700  0.20311200  1
  O  O64  1  0.85519100  0.88653200  0.70121500  1
  O  O65  1  0.85467300  0.61420100  0.70448500  1
  O  O66  1  0.85915100  0.75070200  0.84404300  1
  O  O67  1  0.90879100  0.48702500  0.07440800  1
  O  O68  1  0.91917400  0.01110300  0.07109400  1
  O  O69  1  0.90173800  0.38873700  0.46642400  1
  O  O70  1  0.92704400  0.11902400  0.46664200  1
  O  O71  1  0.90792700  0.87041100  0.20437800  1
  O  O72  1  0.91318400  0.61919700  0.20894000  1
  O  O73  1  0.95493200  0.89166000  0.36850100  1
  O  O74  1  0.94130800  0.60917100  0.37484800  1
  O  O75  1  0.92299200  0.25000400  0.99118500  1
