# generated using pymatgen
data_Li11V6O5F19
_symmetry_space_group_name_H-M   'P 1'
_cell_length_a   5.17266600
_cell_length_b   5.42064563
_cell_length_c   16.32009395
_cell_angle_alpha   81.15673717
_cell_angle_beta   89.91755350
_cell_angle_gamma   89.69534182
_symmetry_Int_Tables_number   1
_chemical_formula_structural   Li11V6O5F19
_chemical_formula_sum   'Li11 V6 O5 F19'
_cell_volume   452.15601476
_cell_formula_units_Z   1
loop_
 _symmetry_equiv_pos_site_id
 _symmetry_equiv_pos_as_xyz
  1  'x, y, z'
loop_
 _atom_site_type_symbol
 _atom_site_label
 _atom_site_symmetry_multiplicity
 _atom_site_fract_x
 _atom_site_fract_y
 _atom_site_fract_z
 _atom_site_occupancy
  Li  Li0  1  0.48698000  0.67362100  0.56061100  1
  Li  Li1  1  0.01337500  0.83014000  0.22480700  1
  Li  Li2  1  0.01905300  0.48396900  0.89151800  1
  Li  Li3  1  0.50970000  0.00535600  0.10570300  1
  Li  Li4  1  0.52621500  0.49158400  0.79456900  1
  Li  Li5  1  0.98242500  0.82230400  0.43957900  1
  Li  Li6  1  0.01548600  0.15879800  0.55632200  1
  Li  Li7  1  0.48596500  0.99691900  0.89120000  1
  Li  Li8  1  0.48401800  0.34458500  0.22366900  1
  Li  Li9  1  0.98613200  0.49641000  0.10724900  1
  Li  Li10  1  0.50925700  0.33981100  0.43704400  1
  V  V11  1  0.49743000  0.46612400  0.00133200  1
  V  V12  1  0.49434600  0.80041100  0.33349600  1
  V  V13  1  0.98870700  0.68644100  0.66593500  1
  V  V14  1  0.99925900  0.02848400  0.00184200  1
  V  V15  1  0.51556300  0.15110400  0.66511500  1
  V  V16  1  0.99483700  0.35877300  0.33467800  1
  O  O17  1  0.68435500  0.20483800  0.96432000  1
  O  O18  1  0.68757500  0.87597800  0.63147800  1
  O  O19  1  0.18843300  0.28594600  0.04135000  1
  O  O20  1  0.67888700  0.53166800  0.29977400  1
  O  O21  1  0.18416800  0.61736600  0.37243500  1
  F  F22  1  0.82662500  0.38059000  0.62601100  1
  F  F23  1  0.32756100  0.48255900  0.68763300  1
  F  F24  1  0.86092800  0.86712800  0.11736000  1
  F  F25  1  0.87783800  0.58400200  0.78106100  1
  F  F26  1  0.63469400  0.69937200  0.45251300  1
  F  F27  1  0.36479100  0.95972000  0.21879000  1
  F  F28  1  0.37336100  0.62526800  0.88390800  1
  F  F29  1  0.13508700  0.79506800  0.54990600  1
  F  F30  1  0.82734000  0.70019000  0.96958400  1
  F  F31  1  0.82664100  0.02976500  0.30324200  1
  F  F32  1  0.32023500  0.12130200  0.36768500  1
  F  F33  1  0.18014500  0.97515800  0.69446900  1
  F  F34  1  0.86096000  0.19822300  0.45009400  1
  F  F35  1  0.14820300  0.13863300  0.88933900  1
  F  F36  1  0.64258600  0.36483900  0.11901000  1
  F  F37  1  0.13536900  0.46623300  0.21744000  1
  F  F38  1  0.59275300  0.13693300  0.78162800  1
  F  F39  1  0.37024600  0.28322500  0.55098600  1
  F  F40  1  0.32531900  0.78891400  0.03491300  1
