# generated using pymatgen
data_Li4CoNi3(PO4)4
_symmetry_space_group_name_H-M   'P 1'
_cell_length_a   5.94140300
_cell_length_b   4.73233400
_cell_length_c   10.15249461
_cell_angle_alpha   89.98011789
_cell_angle_beta   90.00000000
_cell_angle_gamma   90.00000000
_symmetry_Int_Tables_number   1
_chemical_formula_structural   Li4CoNi3(PO4)4
_chemical_formula_sum   'Li4 Co1 Ni3 P4 O16'
_cell_volume   285.45466282
_cell_formula_units_Z   1
loop_
 _symmetry_equiv_pos_site_id
 _symmetry_equiv_pos_as_xyz
  1  'x, y, z'
loop_
 _atom_site_type_symbol
 _atom_site_label
 _atom_site_symmetry_multiplicity
 _atom_site_fract_x
 _atom_site_fract_y
 _atom_site_fract_z
 _atom_site_occupancy
  Li  Li0  1  0.24967900  0.00050800  0.00039900  1
  Li  Li1  1  0.75032100  0.00050800  0.00039900  1
  Li  Li2  1  0.74959600  0.49890300  0.50042400  1
  Li  Li3  1  0.25040400  0.49890300  0.50042400  1
  Co  Co4  1  0.00000000  0.97518700  0.27895800  1
  Ni  Ni5  1  0.50000000  0.01974600  0.72494800  1
  Ni  Ni6  1  0.50000000  0.48029200  0.22334500  1
  Ni  Ni7  1  0.00000000  0.52002700  0.77611500  1
  P  P8  1  0.00000000  0.08418000  0.59541800  1
  P  P9  1  0.00000000  0.41698200  0.09325300  1
  P  P10  1  0.50000000  0.58436100  0.90566700  1
  P  P11  1  0.50000000  0.91617200  0.40574200  1
  O  O12  1  0.00000000  0.20205800  0.45250500  1
  O  O13  1  0.20753300  0.22568400  0.66589000  1
  O  O14  1  0.79246700  0.22568400  0.66589000  1
  O  O15  1  0.50000000  0.23977400  0.39983500  1
  O  O16  1  0.50000000  0.26031200  0.89981400  1
  O  O17  1  0.20718100  0.27608000  0.16426700  1
  O  O18  1  0.79281900  0.27608000  0.16426700  1
  O  O19  1  0.00000000  0.29853500  0.95014200  1
  O  O20  1  0.50000000  0.70169000  0.04870300  1
  O  O21  1  0.70704100  0.72620400  0.83441900  1
  O  O22  1  0.29295900  0.72620400  0.83441900  1
  O  O23  1  0.00000000  0.74058900  0.09827600  1
  O  O24  1  0.00000000  0.75987500  0.59984000  1
  O  O25  1  0.70602600  0.77317200  0.33392900  1
  O  O26  1  0.29397400  0.77317200  0.33392900  1
  O  O27  1  0.50000000  0.79911700  0.54878600  1
