# generated using pymatgen
data_LiGe
_symmetry_space_group_name_H-M   'P 1'
_cell_length_a   12.02234392
_cell_length_b   12.02234392
_cell_length_c   12.02234392
_cell_angle_alpha   160.50954523
_cell_angle_beta   160.50954523
_cell_angle_gamma   27.69993198
_symmetry_Int_Tables_number   1
_chemical_formula_structural   LiGe
_chemical_formula_sum   'Li6 Ge6'
_cell_volume   193.35713725
_cell_formula_units_Z   6
loop_
 _symmetry_equiv_pos_site_id
 _symmetry_equiv_pos_as_xyz
  1  'x, y, z'
loop_
 _atom_site_type_symbol
 _atom_site_label
 _atom_site_symmetry_multiplicity
 _atom_site_fract_x
 _atom_site_fract_y
 _atom_site_fract_z
 _atom_site_occupancy
  Li  Li0  1  0.00000000  0.00000000  0.00000000  1
  Li  Li1  1  0.75000000  0.25000000  0.50000000  1
  Li  Li2  1  0.58689900  0.08689900  0.50000000  1
  Li  Li3  1  0.83689900  0.83689900  0.00000000  1
  Li  Li4  1  0.16310100  0.16310100  0.00000000  1
  Li  Li5  1  0.91310100  0.41310100  0.50000000  1
  Ge  Ge6  1  0.25000000  0.75000000  0.50000000  1
  Ge  Ge7  1  0.50000000  0.50000000  0.00000000  1
  Ge  Ge8  1  0.42269700  0.92269700  0.50000000  1
  Ge  Ge9  1  0.67269700  0.67269700  0.00000000  1
  Ge  Ge10  1  0.32730300  0.32730300  0.00000000  1
  Ge  Ge11  1  0.07730300  0.57730300  0.50000000  1
