# generated using pymatgen
data_Li4V3P8O29
_symmetry_space_group_name_H-M   'P 1'
_cell_length_a   9.75417100
_cell_length_b   9.77415308
_cell_length_c   14.20400330
_cell_angle_alpha   90.14555696
_cell_angle_beta   90.01221831
_cell_angle_gamma   119.75062747
_symmetry_Int_Tables_number   1
_chemical_formula_structural   Li4V3P8O29
_chemical_formula_sum   'Li8 V6 P16 O58'
_cell_volume   1175.69510192
_cell_formula_units_Z   2
loop_
 _symmetry_equiv_pos_site_id
 _symmetry_equiv_pos_as_xyz
  1  'x, y, z'
loop_
 _atom_site_type_symbol
 _atom_site_label
 _atom_site_symmetry_multiplicity
 _atom_site_fract_x
 _atom_site_fract_y
 _atom_site_fract_z
 _atom_site_occupancy
  Li  Li0  1  0.33095700  0.09685500  0.55535100  1
  Li  Li1  1  0.90727300  0.67807600  0.05729600  1
  Li  Li2  1  0.77586300  0.08353700  0.06056900  1
  Li  Li3  1  0.90853300  0.23151600  0.55667000  1
  Li  Li4  1  0.22261600  0.91751600  0.94197000  1
  Li  Li5  1  0.08828300  0.31317800  0.95016800  1
  Li  Li6  1  0.66815300  0.89957400  0.44184500  1
  Li  Li7  1  0.00872500  0.95472300  0.49014400  1
  V  V8  1  0.00222300  0.56907200  0.25978600  1
  V  V9  1  0.00073400  0.43821800  0.74378000  1
  V  V10  1  0.43373300  0.00286100  0.75314100  1
  V  V11  1  0.56489500  0.99810700  0.24656300  1
  V  V12  1  0.43259700  0.43545600  0.24960600  1
  V  V13  1  0.56715900  0.56413800  0.74713700  1
  P  P14  1  0.31457700  0.23359300  0.84422600  1
  P  P15  1  0.31351000  0.08950700  0.33967700  1
  P  P16  1  0.77410200  0.69526400  0.34095000  1
  P  P17  1  0.67371900  0.33950500  0.13319800  1
  P  P18  1  0.66509500  0.33134800  0.62976900  1
  P  P19  1  0.90986400  0.68191500  0.83948400  1
  P  P20  1  0.08589600  0.78139900  0.65840200  1
  P  P21  1  0.77444400  0.09498800  0.84091400  1
  P  P22  1  0.22466500  0.90723300  0.16041700  1
  P  P23  1  0.91023200  0.22415800  0.34283900  1
  P  P24  1  0.08904800  0.32002600  0.16328100  1
  P  P25  1  0.33740200  0.66612500  0.37036000  1
  P  P26  1  0.33067000  0.66347200  0.86598900  1
  P  P27  1  0.22507100  0.30551500  0.65793200  1
  P  P28  1  0.68519500  0.91234700  0.66177400  1
  P  P29  1  0.68537400  0.76845500  0.15502300  1
  O  O30  1  0.21085700  0.20245000  0.57653500  1
  O  O31  1  0.34485200  0.26080400  0.32800700  1
  O  O32  1  0.23068800  0.98354400  0.06933400  1
  O  O33  1  0.33580800  0.08604700  0.84234400  1
  O  O34  1  0.47560700  0.38268500  0.82225100  1
  O  O35  1  0.53034000  0.34447700  0.18099600  1
  O  O36  1  0.61503900  0.54141300  0.33317500  1
  O  O37  1  0.76902400  0.75919800  0.07053800  1
  O  O38  1  0.74233200  0.65818900  0.83379800  1
  O  O39  1  0.51124800  0.18717800  0.66722600  1
  O  O40  1  0.46781100  0.08595900  0.32882000  1
  O  O41  1  0.67181100  0.48138800  0.67658900  1
  O  O42  1  0.67857900  0.35119700  0.02876600  1
  O  O43  1  0.67561000  0.33558800  0.52533000  1
  O  O44  1  0.82322700  0.48603200  0.17786800  1
  O  O45  1  0.62133500  0.10266200  0.82047100  1
  O  O46  1  0.67172400  0.18570900  0.16834000  1
  O  O47  1  0.91231000  0.65797700  0.33630400  1
  O  O48  1  0.00731200  0.79852600  0.75505700  1
  O  O49  1  0.00447300  0.79727300  0.57502400  1
  O  O50  1  0.99629900  0.75075300  0.93001100  1
  O  O51  1  0.90269700  0.52206100  0.81690800  1
  O  O52  1  0.81421900  0.32312100  0.67111200  1
  O  O53  1  0.07806900  0.73910700  0.16653100  1
  O  O54  1  0.90821200  0.38120200  0.32916200  1
  O  O55  1  0.74005600  0.08125600  0.33467100  1
  O  O56  1  0.20402500  0.99768900  0.24945200  1
  O  O57  1  0.22520000  0.02010400  0.42892000  1
  O  O58  1  0.77280100  0.99424700  0.57347200  1
  O  O59  1  0.25967700  0.91835400  0.66504600  1
  O  O60  1  0.08220400  0.62007700  0.66912600  1
  O  O61  1  0.92234100  0.26295500  0.83375800  1
  O  O62  1  0.18734200  0.66999400  0.32693400  1
  O  O63  1  0.09492400  0.47802600  0.18277400  1
  O  O64  1  0.99936000  0.24217700  0.07492300  1
  O  O65  1  0.98458100  0.21689800  0.43269100  1
  O  O66  1  0.99997000  0.20725900  0.25212900  1
  O  O67  1  0.08443700  0.34058200  0.65829900  1
  O  O68  1  0.32933700  0.81591100  0.83327000  1
  O  O69  1  0.37751800  0.89812500  0.17988100  1
  O  O70  1  0.18013500  0.51817200  0.81715700  1
  O  O71  1  0.31760400  0.64179200  0.96968000  1
  O  O72  1  0.32920900  0.65617100  0.47450900  1
  O  O73  1  0.32995300  0.51769700  0.32113000  1
  O  O74  1  0.52854300  0.91044100  0.67405300  1
  O  O75  1  0.48982500  0.81271500  0.33330800  1
  O  O76  1  0.25713300  0.34307400  0.16478100  1
  O  O77  1  0.20360900  0.20948000  0.75353200  1
  O  O78  1  0.23412600  0.24492400  0.92963000  1
  O  O79  1  0.38409200  0.46165800  0.66825300  1
  O  O80  1  0.47327900  0.65957500  0.81794600  1
  O  O81  1  0.52518500  0.61857600  0.17557500  1
  O  O82  1  0.66205200  0.91488100  0.15653500  1
  O  O83  1  0.76940700  0.02052800  0.93259200  1
  O  O84  1  0.79403900  0.00128000  0.75289500  1
  O  O85  1  0.65835800  0.74227700  0.66791600  1
  O  O86  1  0.79640200  0.80084500  0.42317500  1
  O  O87  1  0.79426100  0.79470500  0.24712800  1
