# generated using pymatgen
data_LiMnP3HO10
_symmetry_space_group_name_H-M   'P 1'
_cell_length_a   5.01687500
_cell_length_b   12.52170000
_cell_length_c   14.58133000
_cell_angle_alpha   90.00000000
_cell_angle_beta   90.00000000
_cell_angle_gamma   90.00000000
_symmetry_Int_Tables_number   1
_chemical_formula_structural   LiMnP3HO10
_chemical_formula_sum   'Li4 Mn4 P12 H4 O40'
_cell_volume   915.99628810
_cell_formula_units_Z   4
loop_
 _symmetry_equiv_pos_site_id
 _symmetry_equiv_pos_as_xyz
  1  'x, y, z'
loop_
 _atom_site_type_symbol
 _atom_site_label
 _atom_site_symmetry_multiplicity
 _atom_site_fract_x
 _atom_site_fract_y
 _atom_site_fract_z
 _atom_site_occupancy
  Li  Li0  1  0.14815500  0.20820600  0.04089900  1
  Li  Li1  1  0.14815500  0.29179400  0.54089900  1
  Li  Li2  1  0.85184500  0.70820600  0.04089900  1
  Li  Li3  1  0.85184500  0.79179400  0.54089900  1
  Mn  Mn4  1  0.98435400  0.16249600  0.73669500  1
  Mn  Mn5  1  0.98435400  0.33750400  0.23669500  1
  Mn  Mn6  1  0.01564600  0.66249600  0.73669500  1
  Mn  Mn7  1  0.01564600  0.83750400  0.23669500  1
  P  P8  1  0.25261700  0.08519500  0.22986200  1
  P  P9  1  0.48075200  0.08214500  0.61977800  1
  P  P10  1  0.48408600  0.25632700  0.35373200  1
  P  P11  1  0.48408600  0.24367300  0.85373200  1
  P  P12  1  0.48075200  0.41785500  0.11977800  1
  P  P13  1  0.25261700  0.41480500  0.72986200  1
  P  P14  1  0.74738300  0.58519500  0.22986200  1
  P  P15  1  0.51924800  0.58214500  0.61977800  1
  P  P16  1  0.51591400  0.75632700  0.35373200  1
  P  P17  1  0.51591400  0.74367300  0.85373200  1
  P  P18  1  0.51924800  0.91785500  0.11977800  1
  P  P19  1  0.74738300  0.91480500  0.72986200  1
  H  H20  1  0.50213000  0.12452300  0.48149600  1
  H  H21  1  0.50213000  0.37547700  0.98149600  1
  H  H22  1  0.49787000  0.62452300  0.48149600  1
  H  H23  1  0.49787000  0.87547700  0.98149600  1
  O  O24  1  0.48683400  0.03100700  0.16819700  1
  O  O25  1  0.91022100  0.00086800  0.77383400  1
  O  O26  1  0.54458000  0.05584600  0.51737600  1
  O  O27  1  0.43177600  0.14094600  0.30606900  1
  O  O28  1  0.18888700  0.11685900  0.62588300  1
  O  O29  1  0.11714700  0.16798600  0.17082300  1
  O  O30  1  0.30750200  0.16007800  0.80747200  1
  O  O31  1  0.67248100  0.16581100  0.65811900  1
  O  O32  1  0.41508400  0.24006700  0.45428300  1
  O  O33  1  0.78400100  0.22239300  0.84092000  1
  O  O34  1  0.78400100  0.27760700  0.34092000  1
  O  O35  1  0.41508400  0.25993300  0.95428300  1
  O  O36  1  0.67248100  0.33418900  0.15811900  1
  O  O37  1  0.30750200  0.33992200  0.30747200  1
  O  O38  1  0.11714700  0.33201400  0.67082300  1
  O  O39  1  0.18888700  0.38314100  0.12588300  1
  O  O40  1  0.43177600  0.35905400  0.80606900  1
  O  O41  1  0.54458000  0.44415400  0.01737600  1
  O  O42  1  0.91022100  0.49913200  0.27383400  1
  O  O43  1  0.48683400  0.46899300  0.66819700  1
  O  O44  1  0.51316600  0.53100700  0.16819700  1
  O  O45  1  0.08977900  0.50086800  0.77383400  1
  O  O46  1  0.45542000  0.55584600  0.51737600  1
  O  O47  1  0.56822400  0.64094600  0.30606900  1
  O  O48  1  0.81111300  0.61685900  0.62588300  1
  O  O49  1  0.88285300  0.66798600  0.17082300  1
  O  O50  1  0.69249800  0.66007800  0.80747200  1
  O  O51  1  0.32751900  0.66581100  0.65811900  1
  O  O52  1  0.58491600  0.74006700  0.45428300  1
  O  O53  1  0.21599900  0.72239300  0.84092000  1
  O  O54  1  0.21599900  0.77760700  0.34092000  1
  O  O55  1  0.58491600  0.75993300  0.95428300  1
  O  O56  1  0.32751900  0.83418900  0.15811900  1
  O  O57  1  0.69249800  0.83992200  0.30747200  1
  O  O58  1  0.88285300  0.83201400  0.67082300  1
  O  O59  1  0.81111300  0.88314100  0.12588300  1
  O  O60  1  0.56822400  0.85905400  0.80606900  1
  O  O61  1  0.45542000  0.94415400  0.01737600  1
  O  O62  1  0.08977900  0.99913200  0.27383400  1
  O  O63  1  0.51316600  0.96899300  0.66819700  1
