# generated using pymatgen
data_LiMnPO4
_symmetry_space_group_name_H-M   'P 1'
_cell_length_a   5.10092700
_cell_length_b   8.44050900
_cell_length_c   18.69593800
_cell_angle_alpha   90.00000000
_cell_angle_beta   90.00000000
_cell_angle_gamma   90.00000000
_symmetry_Int_Tables_number   1
_chemical_formula_structural   LiMnPO4
_chemical_formula_sum   'Li8 Mn8 P8 O32'
_cell_volume   804.94277165
_cell_formula_units_Z   8
loop_
 _symmetry_equiv_pos_site_id
 _symmetry_equiv_pos_as_xyz
  1  'x, y, z'
loop_
 _atom_site_type_symbol
 _atom_site_label
 _atom_site_symmetry_multiplicity
 _atom_site_fract_x
 _atom_site_fract_y
 _atom_site_fract_z
 _atom_site_occupancy
  Li  Li0  1  0.45568900  0.14825700  0.76185500  1
  Li  Li1  1  0.60072000  0.07184500  0.54985200  1
  Li  Li2  1  0.10072000  0.42815500  0.04985200  1
  Li  Li3  1  0.95568900  0.35174300  0.26185500  1
  Li  Li4  1  0.45568900  0.64825700  0.73814500  1
  Li  Li5  1  0.60072000  0.57184500  0.95014800  1
  Li  Li6  1  0.10072000  0.92815500  0.45014800  1
  Li  Li7  1  0.95568900  0.85174300  0.23814500  1
  Mn  Mn8  1  0.96423000  0.01238700  0.93199500  1
  Mn  Mn9  1  0.46301600  0.14550300  0.33963100  1
  Mn  Mn10  1  0.96301600  0.35449700  0.83963100  1
  Mn  Mn11  1  0.46423000  0.48761300  0.43199500  1
  Mn  Mn12  1  0.96423000  0.51238700  0.56800500  1
  Mn  Mn13  1  0.46301600  0.64550300  0.16036900  1
  Mn  Mn14  1  0.96301600  0.85449700  0.66036900  1
  Mn  Mn15  1  0.46423000  0.98761300  0.06800500  1
  P  P16  1  0.93097700  0.20180600  0.68146800  1
  P  P17  1  0.43866000  0.23977600  0.93041600  1
  P  P18  1  0.93866000  0.26022400  0.43041600  1
  P  P19  1  0.43097700  0.29819400  0.18146800  1
  P  P20  1  0.93097700  0.70180600  0.81853200  1
  P  P21  1  0.43866000  0.73977600  0.56958400  1
  P  P22  1  0.93866000  0.76022400  0.06958400  1
  P  P23  1  0.43097700  0.79819400  0.31853200  1
  O  O24  1  0.77881200  0.06552100  0.64166200  1
  O  O25  1  0.33448500  0.08820000  0.97078400  1
  O  O26  1  0.85377500  0.10797500  0.46875000  1
  O  O27  1  0.37614500  0.14001400  0.14335900  1
  O  O28  1  0.22078200  0.15503900  0.68521500  1
  O  O29  1  0.74478400  0.22723700  0.92616900  1
  O  O30  1  0.81217100  0.21519500  0.75865800  1
  O  O31  1  0.81692200  0.26951600  0.35412300  1
  O  O32  1  0.31692200  0.23048400  0.85412300  1
  O  O33  1  0.31217100  0.28480500  0.25865800  1
  O  O34  1  0.24478400  0.27276300  0.42616900  1
  O  O35  1  0.72078200  0.34496100  0.18521500  1
  O  O36  1  0.87614500  0.35998600  0.64335900  1
  O  O37  1  0.35377500  0.39202500  0.96875000  1
  O  O38  1  0.83448500  0.41180000  0.47078400  1
  O  O39  1  0.27881200  0.43447900  0.14166200  1
  O  O40  1  0.77881200  0.56552100  0.85833800  1
  O  O41  1  0.33448500  0.58820000  0.52921600  1
  O  O42  1  0.85377500  0.60797500  0.03125000  1
  O  O43  1  0.37614500  0.64001400  0.35664100  1
  O  O44  1  0.22078200  0.65503900  0.81478500  1
  O  O45  1  0.74478400  0.72723700  0.57383100  1
  O  O46  1  0.81217100  0.71519500  0.74134200  1
  O  O47  1  0.81692200  0.76951600  0.14587700  1
  O  O48  1  0.31692200  0.73048400  0.64587700  1
  O  O49  1  0.31217100  0.78480500  0.24134200  1
  O  O50  1  0.24478400  0.77276300  0.07383100  1
  O  O51  1  0.72078200  0.84496100  0.31478500  1
  O  O52  1  0.87614500  0.85998600  0.85664100  1
  O  O53  1  0.35377500  0.89202500  0.53125000  1
  O  O54  1  0.83448500  0.91180000  0.02921600  1
  O  O55  1  0.27881200  0.93447900  0.35833800  1
