# generated using pymatgen
data_LiMn4(PO4)3
_symmetry_space_group_name_H-M   'P 1'
_cell_length_a   9.00377823
_cell_length_b   9.00377823
_cell_length_c   6.73154113
_cell_angle_alpha   72.87411691
_cell_angle_beta   72.87411691
_cell_angle_gamma   94.64647680
_symmetry_Int_Tables_number   1
_chemical_formula_structural   LiMn4(PO4)3
_chemical_formula_sum   'Li2 Mn8 P6 O24'
_cell_volume   489.91548527
_cell_formula_units_Z   2
loop_
 _symmetry_equiv_pos_site_id
 _symmetry_equiv_pos_as_xyz
  1  'x, y, z'
loop_
 _atom_site_type_symbol
 _atom_site_label
 _atom_site_symmetry_multiplicity
 _atom_site_fract_x
 _atom_site_fract_y
 _atom_site_fract_z
 _atom_site_occupancy
  Li  Li0  1  0.99914500  0.00085500  0.75000000  1
  Li  Li1  1  0.00085500  0.99914500  0.25000000  1
  Mn  Mn2  1  0.93924300  0.63115000  0.62836000  1
  Mn  Mn3  1  0.63115000  0.93924300  0.12836000  1
  Mn  Mn4  1  0.50251400  0.49748600  0.75000000  1
  Mn  Mn5  1  0.26125200  0.73874800  0.75000000  1
  Mn  Mn6  1  0.49748600  0.50251400  0.25000000  1
  Mn  Mn7  1  0.73874800  0.26125200  0.25000000  1
  Mn  Mn8  1  0.36885000  0.06075700  0.87164000  1
  Mn  Mn9  1  0.06075700  0.36885000  0.37164000  1
  P  P10  1  0.66609700  0.88598600  0.62062500  1
  P  P11  1  0.88598600  0.66609700  0.12062500  1
  P  P12  1  0.71152200  0.28847800  0.75000000  1
  P  P13  1  0.28847800  0.71152200  0.25000000  1
  P  P14  1  0.11401400  0.33390300  0.87937500  1
  P  P15  1  0.33390300  0.11401400  0.37937500  1
  O  O16  1  0.83421600  0.84616800  0.59967200  1
  O  O17  1  0.60510200  0.95481000  0.80695100  1
  O  O18  1  0.84616800  0.83421600  0.09967200  1
  O  O19  1  0.95481000  0.60510200  0.30695100  1
  O  O20  1  0.31932800  0.99303600  0.60783000  1
  O  O21  1  0.73061800  0.46285800  0.75415800  1
  O  O22  1  0.53786400  0.73673400  0.66839700  1
  O  O23  1  0.73692800  0.18363400  0.95969300  1
  O  O24  1  0.81636600  0.26307200  0.54030700  1
  O  O25  1  0.99303600  0.31932800  0.10783000  1
  O  O26  1  0.46285800  0.73061800  0.25415800  1
  O  O27  1  0.73673400  0.53786400  0.16839700  1
  O  O28  1  0.26326600  0.46213600  0.83160300  1
  O  O29  1  0.53714200  0.26938200  0.74584200  1
  O  O30  1  0.00696300  0.68067200  0.89217000  1
  O  O31  1  0.18363400  0.73692800  0.45969300  1
  O  O32  1  0.26307200  0.81636600  0.04030700  1
  O  O33  1  0.46213600  0.26326600  0.33160300  1
  O  O34  1  0.26938200  0.53714200  0.24584200  1
  O  O35  1  0.68067200  0.00696400  0.39217000  1
  O  O36  1  0.04519000  0.39489800  0.69304900  1
  O  O37  1  0.15383200  0.16578400  0.90032800  1
  O  O38  1  0.39489800  0.04519000  0.19304900  1
  O  O39  1  0.16578400  0.15383200  0.40032800  1
