# generated using pymatgen
data_LiMnPO4
_symmetry_space_group_name_H-M   'P 1'
_cell_length_a   8.60430100
_cell_length_b   5.30988800
_cell_length_c   8.11062500
_cell_angle_alpha   89.99974336
_cell_angle_beta   89.99928014
_cell_angle_gamma   90.00035657
_symmetry_Int_Tables_number   1
_chemical_formula_structural   LiMnPO4
_chemical_formula_sum   'Li4 Mn4 P4 O16'
_cell_volume   370.55721814
_cell_formula_units_Z   4
loop_
 _symmetry_equiv_pos_site_id
 _symmetry_equiv_pos_as_xyz
  1  'x, y, z'
loop_
 _atom_site_type_symbol
 _atom_site_label
 _atom_site_symmetry_multiplicity
 _atom_site_fract_x
 _atom_site_fract_y
 _atom_site_fract_z
 _atom_site_occupancy
  Li  Li0  1  0.19586900  0.33794900  0.53597200  1
  Li  Li1  1  0.30412600  0.33795300  0.03596800  1
  Li  Li2  1  0.69587500  0.83793200  0.96402000  1
  Li  Li3  1  0.80413600  0.83800800  0.46404400  1
  Mn  Mn4  1  0.05925500  0.96938100  0.82723300  1
  Mn  Mn5  1  0.44076100  0.96939100  0.32722500  1
  Mn  Mn6  1  0.55924300  0.46937800  0.67274600  1
  Mn  Mn7  1  0.94075700  0.46933600  0.17277300  1
  P  P8  1  0.07479000  0.00640700  0.24882200  1
  P  P9  1  0.42522200  0.00644700  0.74880900  1
  P  P10  1  0.57477600  0.50642300  0.25118000  1
  P  P11  1  0.92520900  0.50643900  0.75119100  1
  O  O12  1  0.05874900  0.23776200  0.36446500  1
  O  O13  1  0.07367100  0.34023400  0.73972400  1
  O  O14  1  0.08419900  0.13555400  0.07119000  1
  O  O15  1  0.21834700  0.84201100  0.27998900  1
  O  O16  1  0.28167000  0.84203200  0.77998400  1
  O  O17  1  0.41580400  0.13558200  0.57118200  1
  O  O18  1  0.42630600  0.34022400  0.23972900  1
  O  O19  1  0.44125000  0.23780500  0.86445400  1
  O  O20  1  0.55875200  0.73776200  0.13552800  1
  O  O21  1  0.57368500  0.84024700  0.76026700  1
  O  O22  1  0.58419500  0.63557500  0.42880100  1
  O  O23  1  0.71832800  0.34200100  0.22002200  1
  O  O24  1  0.78165200  0.34204700  0.72000200  1
  O  O25  1  0.91579700  0.63554800  0.92882800  1
  O  O26  1  0.92633000  0.84020700  0.26028600  1
  O  O27  1  0.94124600  0.73781500  0.63556500  1
