# generated using pymatgen
data_LiCoPO4
_symmetry_space_group_name_H-M   'P 1'
_cell_length_a   14.96579418
_cell_length_b   14.96579418
_cell_length_c   7.89774200
_cell_angle_alpha   90.00000000
_cell_angle_beta   90.00000000
_cell_angle_gamma   120.00000080
_symmetry_Int_Tables_number   1
_chemical_formula_structural   LiCoPO4
_chemical_formula_sum   'Li18 Co18 P18 O72'
_cell_volume   1531.90949124
_cell_formula_units_Z   18
loop_
 _symmetry_equiv_pos_site_id
 _symmetry_equiv_pos_as_xyz
  1  'x, y, z'
loop_
 _atom_site_type_symbol
 _atom_site_label
 _atom_site_symmetry_multiplicity
 _atom_site_fract_x
 _atom_site_fract_y
 _atom_site_fract_z
 _atom_site_occupancy
  Li  Li0  1  0.00983600  0.69032300  0.49736400  1
  Li  Li1  1  0.33911900  0.98905200  0.57206700  1
  Li  Li2  1  0.01094800  0.35006700  0.57206700  1
  Li  Li3  1  0.33333300  0.66666700  0.66336200  1
  Li  Li4  1  0.00000000  0.00000000  0.90938900  1
  Li  Li5  1  0.00000000  0.00000000  0.40938900  1
  Li  Li6  1  0.33333300  0.66666700  0.16241800  1
  Li  Li7  1  0.30967700  0.31951300  0.49736400  1
  Li  Li8  1  0.35006700  0.33911900  0.07206700  1
  Li  Li9  1  0.68048700  0.99016400  0.49736400  1
  Li  Li10  1  0.31951300  0.00983600  0.99736400  1
  Li  Li11  1  0.64993300  0.66088100  0.57206700  1
  Li  Li12  1  0.69032300  0.68048700  0.99736400  1
  Li  Li13  1  0.66666700  0.33333300  0.16336200  1
  Li  Li14  1  0.66666700  0.33333300  0.66241800  1
  Li  Li15  1  0.98905200  0.64993300  0.07206700  1
  Li  Li16  1  0.66088100  0.01094800  0.07206700  1
  Li  Li17  1  0.99016400  0.30967700  0.99736400  1
  Co  Co18  1  0.09113200  0.87057800  0.81235400  1
  Co  Co19  1  0.11389100  0.57747800  0.75023900  1
  Co  Co20  1  0.24680200  0.79863200  0.26225400  1
  Co  Co21  1  0.20136800  0.44817000  0.26225400  1
  Co  Co22  1  0.46358700  0.88610900  0.75023900  1
  Co  Co23  1  0.12942200  0.22055400  0.81235400  1
  Co  Co24  1  0.42252200  0.53641300  0.75023900  1
  Co  Co25  1  0.22055400  0.09113200  0.31235400  1
  Co  Co26  1  0.55183000  0.75319800  0.26225400  1
  Co  Co27  1  0.44817000  0.24680200  0.76225400  1
  Co  Co28  1  0.77944600  0.90886800  0.81235400  1
  Co  Co29  1  0.57747800  0.46358700  0.25023900  1
  Co  Co30  1  0.87057800  0.77944600  0.31235400  1
  Co  Co31  1  0.53641300  0.11389100  0.25023900  1
  Co  Co32  1  0.79863200  0.55183000  0.76225400  1
  Co  Co33  1  0.75319800  0.20136800  0.76225400  1
  Co  Co34  1  0.88610900  0.42252200  0.25023900  1
  Co  Co35  1  0.90886800  0.12942200  0.31235400  1
  P  P36  1  0.09511000  0.87058200  0.20927700  1
  P  P37  1  0.10749500  0.57592700  0.35976600  1
  P  P38  1  0.24036500  0.79671800  0.86185100  1
  P  P39  1  0.20328200  0.44364600  0.86185100  1
  P  P40  1  0.46843200  0.89250500  0.35976600  1
  P  P41  1  0.12941800  0.22452800  0.20927700  1
  P  P42  1  0.42407300  0.53156800  0.35976600  1
  P  P43  1  0.55635400  0.75963500  0.86185100  1
  P  P44  1  0.22452800  0.09511000  0.70927700  1
  P  P45  1  0.77547200  0.90489000  0.20927700  1
  P  P46  1  0.44364600  0.24036500  0.36185100  1
  P  P47  1  0.57592700  0.46843200  0.85976600  1
  P  P48  1  0.87058200  0.77547200  0.70927700  1
  P  P49  1  0.53156800  0.10749500  0.85976600  1
  P  P50  1  0.79671800  0.55635400  0.36185100  1
  P  P51  1  0.75963500  0.20328200  0.36185100  1
  P  P52  1  0.89250500  0.42407300  0.85976600  1
  P  P53  1  0.90489000  0.12941800  0.70927700  1
  O  O54  1  0.01914800  0.89467500  0.30749900  1
  O  O55  1  0.04327500  0.81316800  0.04248600  1
  O  O56  1  0.19628000  0.97338200  0.16808700  1
  O  O57  1  0.11780100  0.79871300  0.32179800  1
  O  O58  1  0.01418900  0.55778300  0.24974600  1
  O  O59  1  0.22101200  0.87362200  0.75611700  1
  O  O60  1  0.13870300  0.69427600  0.89748500  1
  O  O61  1  0.10505100  0.63029300  0.52619800  1
  O  O62  1  0.29242300  0.85243000  0.03048800  1
  O  O63  1  0.20951200  0.64928200  0.26373300  1
  O  O64  1  0.10473200  0.47249400  0.40113600  1
  O  O65  1  0.36776100  0.89526800  0.40113600  1
  O  O66  1  0.02661800  0.22289800  0.16808700  1
  O  O67  1  0.31605600  0.77326500  0.76109200  1
  O  O68  1  0.22673500  0.54279100  0.76109200  1
  O  O69  1  0.14757000  0.43999200  0.03048800  1
  O  O70  1  0.12637800  0.34739000  0.75611700  1
  O  O71  1  0.20128700  0.31908800  0.32179800  1
  O  O72  1  0.54359400  0.98581100  0.24974600  1
  O  O73  1  0.52524300  0.89494900  0.52619800  1
  O  O74  1  0.18683200  0.23010700  0.04248600  1
  O  O75  1  0.10532500  0.12447200  0.30749900  1
  O  O76  1  0.43977100  0.79048800  0.26373300  1
  O  O77  1  0.35071800  0.56022900  0.26373300  1
  O  O78  1  0.30572400  0.44442700  0.89748500  1
  O  O79  1  0.22289800  0.19628000  0.66808700  1
  O  O80  1  0.55557300  0.86129700  0.89748500  1
  O  O81  1  0.12447200  0.01914800  0.80749900  1
  O  O82  1  0.45720900  0.68394400  0.76109200  1
  O  O83  1  0.36970700  0.47475700  0.52619800  1
  O  O84  1  0.23010700  0.04327500  0.54248600  1
  O  O85  1  0.56000800  0.70757700  0.03048800  1
  O  O86  1  0.52750600  0.63223900  0.40113600  1
  O  O87  1  0.44221700  0.45640600  0.24974600  1
  O  O88  1  0.34739000  0.22101200  0.25611700  1
  O  O89  1  0.68091200  0.88219900  0.32179800  1
  O  O90  1  0.31908800  0.11780100  0.82179800  1
  O  O91  1  0.65261000  0.77898800  0.75611700  1
  O  O92  1  0.55778300  0.54359400  0.74974600  1
  O  O93  1  0.47249400  0.36776100  0.90113600  1
  O  O94  1  0.43999200  0.29242300  0.53048800  1
  O  O95  1  0.76989300  0.95672500  0.04248600  1
  O  O96  1  0.63029300  0.52524300  0.02619800  1
  O  O97  1  0.54279100  0.31605600  0.26109200  1
  O  O98  1  0.87552800  0.98085200  0.30749900  1
  O  O99  1  0.44442700  0.13870300  0.39748500  1
  O  O100  1  0.77710200  0.80372000  0.16808700  1
  O  O101  1  0.69427600  0.55557300  0.39748500  1
  O  O102  1  0.64928200  0.43977100  0.76373300  1
  O  O103  1  0.56022900  0.20951200  0.76373300  1
  O  O104  1  0.89467500  0.87552800  0.80749900  1
  O  O105  1  0.81316800  0.76989300  0.54248600  1
  O  O106  1  0.47475700  0.10505100  0.02619800  1
  O  O107  1  0.45640600  0.01418900  0.74974600  1
  O  O108  1  0.79871300  0.68091200  0.82179800  1
  O  O109  1  0.87362200  0.65261000  0.25611700  1
  O  O110  1  0.85243000  0.56000800  0.53048800  1
  O  O111  1  0.77326500  0.45720900  0.26109200  1
  O  O112  1  0.68394400  0.22673500  0.26109200  1
  O  O113  1  0.97338200  0.77710200  0.66808700  1
  O  O114  1  0.63223900  0.10473200  0.90113600  1
  O  O115  1  0.89526800  0.52750600  0.90113600  1
  O  O116  1  0.79048800  0.35071800  0.76373300  1
  O  O117  1  0.70757700  0.14757000  0.53048800  1
  O  O118  1  0.89494900  0.36970700  0.02619800  1
  O  O119  1  0.86129700  0.30572400  0.39748500  1
  O  O120  1  0.77898800  0.12637800  0.25611700  1
  O  O121  1  0.98581100  0.44221700  0.74974600  1
  O  O122  1  0.88219900  0.20128700  0.82179800  1
  O  O123  1  0.80372000  0.02661800  0.66808700  1
  O  O124  1  0.95672500  0.18683200  0.54248600  1
  O  O125  1  0.98085200  0.10532500  0.80749900  1
