# generated using pymatgen
data_Li4Ti3Fe3(SbO8)2
_symmetry_space_group_name_H-M   'P 1'
_cell_length_a   6.01294500
_cell_length_b   6.04717334
_cell_length_c   9.85745273
_cell_angle_alpha   90.60354075
_cell_angle_beta   90.49420821
_cell_angle_gamma   119.52588371
_symmetry_Int_Tables_number   1
_chemical_formula_structural   Li4Ti3Fe3(SbO8)2
_chemical_formula_sum   'Li4 Ti3 Fe3 Sb2 O16'
_cell_volume   311.82520011
_cell_formula_units_Z   1
loop_
 _symmetry_equiv_pos_site_id
 _symmetry_equiv_pos_as_xyz
  1  'x, y, z'
loop_
 _atom_site_type_symbol
 _atom_site_label
 _atom_site_symmetry_multiplicity
 _atom_site_fract_x
 _atom_site_fract_y
 _atom_site_fract_z
 _atom_site_occupancy
  Li  Li0  1  0.65975400  0.32431600  0.90135100  1
  Li  Li1  1  0.99873700  0.99499300  0.98737300  1
  Li  Li2  1  0.00206600  0.00555400  0.49063200  1
  Li  Li3  1  0.32949400  0.66230100  0.40422900  1
  Ti  Ti4  1  0.34842500  0.18053900  0.21498600  1
  Ti  Ti5  1  0.83272900  0.17588200  0.21705200  1
  Ti  Ti6  1  0.16972800  0.34073200  0.71741800  1
  Fe  Fe7  1  0.82574600  0.65732400  0.20890000  1
  Fe  Fe8  1  0.17357800  0.83453600  0.71235000  1
  Fe  Fe9  1  0.65877700  0.83349800  0.71343100  1
  Sb  Sb10  1  0.67615100  0.34540900  0.49414200  1
  Sb  Sb11  1  0.33585900  0.67562000  0.98688900  1
  O  O12  1  0.33513400  0.17114300  0.60338900  1
  O  O13  1  0.52198100  0.03821500  0.33544200  1
  O  O14  1  0.64970000  0.29834100  0.10548600  1
  O  O15  1  0.01157800  0.01977500  0.30071500  1
  O  O16  1  0.01453700  0.01590900  0.80306300  1
  O  O17  1  0.85198600  0.18065900  0.59917900  1
  O  O18  1  0.49777000  0.46191700  0.34210600  1
  O  O19  1  0.96127300  0.46478600  0.33948000  1
  O  O20  1  0.16884800  0.33927000  0.09782100  1
  O  O21  1  0.85415400  0.68401000  0.58985200  1
  O  O22  1  0.03405000  0.51093600  0.84622800  1
  O  O23  1  0.46506600  0.50532700  0.85182600  1
  O  O24  1  0.31348800  0.64046300  0.60718800  1
  O  O25  1  0.17219600  0.84037200  0.09437300  1
  O  O26  1  0.46709500  0.95780200  0.85012100  1
  O  O27  1  0.66980000  0.84037100  0.09281500  1
