# generated using pymatgen
data_LiMnPO4
_symmetry_space_group_name_H-M   'P 1'
_cell_length_a   5.31091722
_cell_length_b   26.89759300
_cell_length_c   5.31091672
_cell_angle_alpha   90.00000000
_cell_angle_beta   60.00000042
_cell_angle_gamma   90.00000000
_symmetry_Int_Tables_number   1
_chemical_formula_structural   LiMnPO4
_chemical_formula_sum   'Li6 Mn6 P6 O24'
_cell_volume   657.02678415
_cell_formula_units_Z   6
loop_
 _symmetry_equiv_pos_site_id
 _symmetry_equiv_pos_as_xyz
  1  'x, y, z'
loop_
 _atom_site_type_symbol
 _atom_site_label
 _atom_site_symmetry_multiplicity
 _atom_site_fract_x
 _atom_site_fract_y
 _atom_site_fract_z
 _atom_site_occupancy
  Li  Li0  1  0.00000000  0.08333400  0.00000000  1
  Li  Li1  1  0.00000000  0.58333400  0.00000000  1
  Li  Li2  1  0.00000000  0.25000000  0.00000000  1
  Li  Li3  1  0.00000000  0.75000000  0.00000000  1
  Li  Li4  1  0.00000000  0.41666600  0.00000000  1
  Li  Li5  1  0.00000000  0.91666600  0.00000000  1
  Mn  Mn6  1  0.50000000  0.83333400  0.00000000  1
  Mn  Mn7  1  0.00000000  0.16666600  0.50000000  1
  Mn  Mn8  1  0.50000000  0.50000000  0.50000000  1
  Mn  Mn9  1  0.50000000  0.33333400  0.00000000  1
  Mn  Mn10  1  0.00000000  0.66666700  0.50000000  1
  Mn  Mn11  1  0.50000000  0.00000000  0.50000000  1
  P  P12  1  0.50000000  0.08333400  0.00000000  1
  P  P13  1  0.50000000  0.58333400  0.00000000  1
  P  P14  1  0.00000000  0.41666600  0.50000000  1
  P  P15  1  0.00000000  0.91666600  0.50000000  1
  P  P16  1  0.50000000  0.25000000  0.50000000  1
  P  P17  1  0.50000000  0.75000000  0.50000000  1
  O  O18  1  0.59481300  0.05100800  0.18053500  1
  O  O19  1  0.59481300  0.55100800  0.18053500  1
  O  O20  1  0.59481300  0.28232500  0.22465200  1
  O  O21  1  0.59481300  0.78232500  0.22465200  1
  O  O22  1  0.22465200  0.11565800  0.18053500  1
  O  O23  1  0.22465200  0.61565800  0.18053500  1
  O  O24  1  0.18053500  0.38434200  0.22465200  1
  O  O25  1  0.18053500  0.88434200  0.22465200  1
  O  O26  1  0.22465200  0.21767500  0.59481300  1
  O  O27  1  0.22465200  0.71767500  0.59481300  1
  O  O28  1  0.18053500  0.44899200  0.59481300  1
  O  O29  1  0.18053500  0.94899200  0.59481300  1
  O  O30  1  0.77534800  0.21767500  0.40518700  1
  O  O31  1  0.77534800  0.71767500  0.40518700  1
  O  O32  1  0.81946500  0.44899200  0.40518700  1
  O  O33  1  0.81946500  0.94899200  0.40518700  1
  O  O34  1  0.77534800  0.11565800  0.81946500  1
  O  O35  1  0.77534800  0.61565800  0.81946500  1
  O  O36  1  0.81946500  0.38434200  0.77534800  1
  O  O37  1  0.81946500  0.88434200  0.77534800  1
  O  O38  1  0.40518700  0.05100800  0.81946500  1
  O  O39  1  0.40518700  0.55100800  0.81946500  1
  O  O40  1  0.40518700  0.28232500  0.77534800  1
  O  O41  1  0.40518700  0.78232500  0.77534800  1
