# generated using pymatgen
data_LiVP2O7
_symmetry_space_group_name_H-M   'P 1'
_cell_length_a   7.24691975
_cell_length_b   5.81923577
_cell_length_c   7.20243634
_cell_angle_alpha   112.61012162
_cell_angle_beta   105.03708628
_cell_angle_gamma   83.92854649
_symmetry_Int_Tables_number   1
_chemical_formula_structural   LiVP2O7
_chemical_formula_sum   'Li2 V2 P4 O14'
_cell_volume   270.78583269
_cell_formula_units_Z   2
loop_
 _symmetry_equiv_pos_site_id
 _symmetry_equiv_pos_as_xyz
  1  'x, y, z'
loop_
 _atom_site_type_symbol
 _atom_site_label
 _atom_site_symmetry_multiplicity
 _atom_site_fract_x
 _atom_site_fract_y
 _atom_site_fract_z
 _atom_site_occupancy
  Li  Li0  1  0.35392700  0.91004100  0.82274300  1
  Li  Li1  1  0.64607300  0.08996200  0.17725800  1
  V  V2  1  0.19586400  0.70196500  0.09783900  1
  V  V3  1  0.80413600  0.29802800  0.90216100  1
  P  P4  1  0.19285000  0.21733400  0.23176200  1
  P  P5  1  0.35182600  0.34050100  0.68382600  1
  P  P6  1  0.64817300  0.65950000  0.31617400  1
  P  P7  1  0.80715100  0.78266700  0.76823800  1
  O  O8  1  0.94448200  0.97945800  0.78458400  1
  O  O9  1  0.08740800  0.40127700  0.12841600  1
  O  O10  1  0.26806400  0.39072600  0.46812400  1
  O  O11  1  0.26610600  0.11361200  0.67294200  1
  O  O12  1  0.35281700  0.06619100  0.13305300  1
  O  O13  1  0.29677000  0.59018000  0.84270100  1
  O  O14  1  0.42948600  0.66174600  0.28956100  1
  O  O15  1  0.57051400  0.33825600  0.71044100  1
  O  O16  1  0.70322700  0.40982000  0.15729900  1
  O  O17  1  0.64718400  0.93381300  0.86694700  1
  O  O18  1  0.73389400  0.88638500  0.32705600  1
  O  O19  1  0.73193600  0.60927400  0.53187600  1
  O  O20  1  0.91259100  0.59872200  0.87158400  1
  O  O21  1  0.05552000  0.02054100  0.21541600  1
