# generated using pymatgen
data_Li3V3P8O29
_symmetry_space_group_name_H-M   'P 1'
_cell_length_a   9.75613700
_cell_length_b   9.75615070
_cell_length_c   14.40892741
_cell_angle_alpha   89.38859543
_cell_angle_beta   89.21771278
_cell_angle_gamma   60.11428985
_symmetry_Int_Tables_number   1
_chemical_formula_structural   Li3V3P8O29
_chemical_formula_sum   'Li6 V6 P16 O58'
_cell_volume   1188.97543121
_cell_formula_units_Z   2
loop_
 _symmetry_equiv_pos_site_id
 _symmetry_equiv_pos_as_xyz
  1  'x, y, z'
loop_
 _atom_site_type_symbol
 _atom_site_label
 _atom_site_symmetry_multiplicity
 _atom_site_fract_x
 _atom_site_fract_y
 _atom_site_fract_z
 _atom_site_occupancy
  Li  Li0  1  0.67911300  0.09073400  0.45181100  1
  Li  Li1  1  0.08954200  0.68106500  0.94304700  1
  Li  Li2  1  0.21873400  0.08487000  0.94020700  1
  Li  Li3  1  0.09358000  0.22774400  0.44281500  1
  Li  Li4  1  0.78187400  0.92734400  0.05515200  1
  Li  Li5  1  0.03885200  0.93588800  0.49929600  1
  V  V6  1  0.99695000  0.56615400  0.74386000  1
  V  V7  1  0.99727600  0.43684100  0.25300400  1
  V  V8  1  0.56135400  0.00564200  0.25132000  1
  V  V9  1  0.43598800  0.99556800  0.74835400  1
  V  V10  1  0.56549100  0.43671300  0.75178400  1
  V  V11  1  0.43417900  0.56151800  0.25162700  1
  P  P12  1  0.68911300  0.22937100  0.15453800  1
  P  P13  1  0.68823000  0.09016300  0.66295500  1
  P  P14  1  0.22676100  0.69490000  0.65967400  1
  P  P15  1  0.32747700  0.33426700  0.86623800  1
  P  P16  1  0.33363800  0.33088400  0.36876800  1
  P  P17  1  0.09006500  0.68277700  0.16113800  1
  P  P18  1  0.91287700  0.78086300  0.34060700  1
  P  P19  1  0.22792000  0.09337500  0.15737900  1
  P  P20  1  0.77252000  0.90704600  0.84038400  1
  P  P21  1  0.08781900  0.22399100  0.65678700  1
  P  P22  1  0.91023500  0.31346100  0.83554800  1
  P  P23  1  0.66651300  0.66708200  0.63305900  1
  P  P24  1  0.66648400  0.67076400  0.13636900  1
  P  P25  1  0.77496800  0.30419500  0.33793800  1
  P  P26  1  0.30531400  0.91235000  0.33425800  1
  P  P27  1  0.31039600  0.77344800  0.84131300  1
  O  O28  1  0.78474300  0.20274900  0.41803900  1
  O  O29  1  0.65547900  0.26152200  0.67158700  1
  O  O30  1  0.76561000  0.98392100  0.92983400  1
  O  O31  1  0.66286000  0.08265300  0.16554000  1
  O  O32  1  0.52746200  0.38133800  0.17814300  1
  O  O33  1  0.46881000  0.34509400  0.81875400  1
  O  O34  1  0.38736000  0.54130400  0.66981600  1
  O  O35  1  0.22156200  0.76905100  0.92449900  1
  O  O36  1  0.25788900  0.65868600  0.16850900  1
  O  O37  1  0.48847500  0.18605600  0.32393000  1
  O  O38  1  0.52984100  0.08843300  0.67654600  1
  O  O39  1  0.32758900  0.48083300  0.32361400  1
  O  O40  1  0.32572600  0.33839000  0.96928900  1
  O  O41  1  0.34983300  0.31528200  0.47133700  1
  O  O42  1  0.17596900  0.47978600  0.82505600  1
  O  O43  1  0.37907900  0.10288400  0.18107400  1
  O  O44  1  0.33744100  0.17920700  0.82731100  1
  O  O45  1  0.09213300  0.65259500  0.67208600  1
  O  O46  1  0.98842600  0.80060000  0.24347900  1
  O  O47  1  0.99124700  0.80490400  0.42071600  1
  O  O48  1  0.00762100  0.75215800  0.07147900  1
  O  O49  1  0.09889100  0.52132600  0.18300300  1
  O  O50  1  0.18521200  0.32465900  0.33314200  1
  O  O51  1  0.92036900  0.73869800  0.83519400  1
  O  O52  1  0.08790300  0.38243900  0.67040800  1
  O  O53  1  0.25828200  0.08466800  0.67364200  1
  O  O54  1  0.79426200  0.99892100  0.75195100  1
  O  O55  1  0.77021100  0.01692900  0.57385100  1
  O  O56  1  0.20016700  0.00358900  0.41317200  1
  O  O57  1  0.73638000  0.91680700  0.33584600  1
  O  O58  1  0.92179500  0.61762400  0.33201900  1
  O  O59  1  0.08245800  0.26013000  0.17539600  1
  O  O60  1  0.81334000  0.67244300  0.67604800  1
  O  O61  1  0.90447600  0.47376500  0.81770600  1
  O  O62  1  0.00447800  0.22471700  0.91678700  1
  O  O63  1  0.02693100  0.21026200  0.56544200  1
  O  O64  1  0.98598300  0.21138100  0.74069200  1
  O  O65  1  0.91293600  0.34230600  0.33959600  1
  O  O66  1  0.66231000  0.82237900  0.17818500  1
  O  O67  1  0.62040900  0.89991500  0.81975300  1
  O  O68  1  0.81743500  0.52808600  0.18484600  1
  O  O69  1  0.67748100  0.67112900  0.03400200  1
  O  O70  1  0.66695100  0.67208400  0.53044500  1
  O  O71  1  0.67067100  0.51956600  0.67899300  1
  O  O72  1  0.46183900  0.91865500  0.32575600  1
  O  O73  1  0.51617300  0.81490100  0.67796100  1
  O  O74  1  0.73810800  0.34475100  0.83378000  1
  O  O75  1  0.80000200  0.21003600  0.24245400  1
  O  O76  1  0.76491900  0.22900300  0.06591800  1
  O  O77  1  0.61554800  0.46188600  0.32765900  1
  O  O78  1  0.52504200  0.66099900  0.18061000  1
  O  O79  1  0.47141000  0.62093700  0.82419900  1
  O  O80  1  0.33899500  0.91722500  0.84051800  1
  O  O81  1  0.23586400  0.02701700  0.06480100  1
  O  O82  1  0.21481100  0.98423700  0.23697600  1
  O  O83  1  0.34467300  0.73820500  0.33246000  1
  O  O84  1  0.20265600  0.79158300  0.57544900  1
  O  O85  1  0.20646600  0.80027400  0.74979000  1
