# generated using pymatgen
data_LiMn3(BO3)3
_symmetry_space_group_name_H-M   'P 1'
_cell_length_a   5.24570500
_cell_length_b   7.76104858
_cell_length_c   9.83107286
_cell_angle_alpha   106.25801615
_cell_angle_beta   104.24108909
_cell_angle_gamma   89.51803655
_symmetry_Int_Tables_number   1
_chemical_formula_structural   LiMn3(BO3)3
_chemical_formula_sum   'Li2 Mn6 B6 O18'
_cell_volume   371.64386632
_cell_formula_units_Z   2
loop_
 _symmetry_equiv_pos_site_id
 _symmetry_equiv_pos_as_xyz
  1  'x, y, z'
loop_
 _atom_site_type_symbol
 _atom_site_label
 _atom_site_symmetry_multiplicity
 _atom_site_fract_x
 _atom_site_fract_y
 _atom_site_fract_z
 _atom_site_occupancy
  Li  Li0  1  0.21905700  0.42657700  0.24705500  1
  Li  Li1  1  0.78094300  0.57342300  0.75294500  1
  Mn  Mn2  1  0.77743800  0.35443100  0.38324600  1
  Mn  Mn3  1  0.43803000  0.05303600  0.70092800  1
  Mn  Mn4  1  0.86101000  0.29108500  0.96741300  1
  Mn  Mn5  1  0.13899000  0.70891500  0.03258700  1
  Mn  Mn6  1  0.56197000  0.94696400  0.29907200  1
  Mn  Mn7  1  0.22256200  0.64556900  0.61675400  1
  B  B8  1  0.00528300  0.07390100  0.16862200  1
  B  B9  1  0.66376700  0.57425500  0.16633700  1
  B  B10  1  0.31329800  0.24672100  0.48521900  1
  B  B11  1  0.68670200  0.75327900  0.51478100  1
  B  B12  1  0.33623300  0.42574500  0.83366300  1
  B  B13  1  0.99471700  0.92609900  0.83137800  1
  O  O14  1  0.79162400  0.10151200  0.22426300  1
  O  O15  1  0.09459600  0.19024700  0.10345000  1
  O  O16  1  0.83418100  0.06957800  0.81040000  1
  O  O17  1  0.89397400  0.53215300  0.11489200  1
  O  O18  1  0.53437000  0.18320500  0.43511500  1
  O  O19  1  0.56281100  0.47397500  0.23322400  1
  O  O20  1  0.21438900  0.17018100  0.57128600  1
  O  O21  1  0.52734500  0.72098700  0.13195700  1
  O  O22  1  0.19658900  0.39250400  0.44072700  1
  O  O23  1  0.80341100  0.60749600  0.55927300  1
  O  O24  1  0.47265500  0.27901300  0.86804300  1
  O  O25  1  0.78561100  0.82981900  0.42871400  1
  O  O26  1  0.43718900  0.52602500  0.76677600  1
  O  O27  1  0.46563000  0.81679500  0.56488500  1
  O  O28  1  0.10602600  0.46784700  0.88510800  1
  O  O29  1  0.16581900  0.93042200  0.18960000  1
  O  O30  1  0.90540400  0.80975300  0.89655000  1
  O  O31  1  0.20837600  0.89848800  0.77573700  1
