# generated using pymatgen
data_Li3Mn2(PO4)3
_symmetry_space_group_name_H-M   'P 1'
_cell_length_a   9.74116260
_cell_length_b   9.74116260
_cell_length_c   9.89590508
_cell_angle_alpha   85.16108906
_cell_angle_beta   85.16108906
_cell_angle_gamma   88.98325897
_symmetry_Int_Tables_number   1
_chemical_formula_structural   Li3Mn2(PO4)3
_chemical_formula_sum   'Li12 Mn8 P12 O48'
_cell_volume   932.28965843
_cell_formula_units_Z   4
loop_
 _symmetry_equiv_pos_site_id
 _symmetry_equiv_pos_as_xyz
  1  'x, y, z'
loop_
 _atom_site_type_symbol
 _atom_site_label
 _atom_site_symmetry_multiplicity
 _atom_site_fract_x
 _atom_site_fract_y
 _atom_site_fract_z
 _atom_site_occupancy
  Li  Li0  1  0.21018000  0.03199700  0.41415900  1
  Li  Li1  1  0.49421300  0.80998100  0.52290500  1
  Li  Li2  1  0.96800300  0.78982000  0.58584100  1
  Li  Li3  1  0.19001900  0.50578700  0.47709500  1
  Li  Li4  1  0.47185400  0.03736000  0.25722600  1
  Li  Li5  1  0.96264000  0.52814600  0.74277400  1
  Li  Li6  1  0.25542900  0.34547000  0.74613200  1
  Li  Li7  1  0.65453000  0.74457100  0.25386800  1
  Li  Li8  1  0.80510600  0.51182100  0.00308800  1
  Li  Li9  1  0.99996300  0.23066800  0.91264400  1
  Li  Li10  1  0.48817900  0.19489400  0.99691200  1
  Li  Li11  1  0.76933200  0.00003700  0.08735600  1
  Mn  Mn12  1  0.24132800  0.96717800  0.77811000  1
  Mn  Mn13  1  0.97384500  0.24512900  0.27725000  1
  Mn  Mn14  1  0.53079600  0.46920400  0.50000000  1
  Mn  Mn15  1  0.74260800  0.25739200  0.50000000  1
  Mn  Mn16  1  0.25960700  0.74039300  0.00000000  1
  Mn  Mn17  1  0.03282200  0.75867200  0.22189000  1
  Mn  Mn18  1  0.47144900  0.52855100  0.00000000  1
  Mn  Mn19  1  0.75487100  0.02615500  0.72275000  1
  P  P20  1  0.83315400  0.95345400  0.40455800  1
  P  P21  1  0.34657300  0.67500300  0.30079700  1
  P  P22  1  0.84385900  0.55770700  0.43174800  1
  P  P23  1  0.32499700  0.65342700  0.69920300  1
  P  P24  1  0.95226200  0.82178500  0.90871500  1
  P  P25  1  0.55877400  0.83868900  0.93482800  1
  P  P26  1  0.44229300  0.15614100  0.56825200  1
  P  P27  1  0.04654600  0.16684600  0.59544200  1
  P  P28  1  0.67943700  0.33677700  0.80196300  1
  P  P29  1  0.16131100  0.44122600  0.06517200  1
  P  P30  1  0.66322300  0.32056300  0.19803700  1
  P  P31  1  0.17821500  0.04773800  0.09128500  1
  O  O32  1  0.72461800  0.90449600  0.31922900  1
  O  O33  1  0.97990200  0.89413400  0.37327700  1
  O  O34  1  0.43171300  0.79344400  0.34068100  1
  O  O35  1  0.18719000  0.68807900  0.33587300  1
  O  O36  1  0.80049400  0.91587200  0.56071600  1
  O  O37  1  0.89769600  0.62348400  0.28906500  1
  O  O38  1  0.38223100  0.53431000  0.37524200  1
  O  O39  1  0.31192100  0.81281000  0.66412700  1
  O  O40  1  0.68426400  0.59263300  0.43352600  1
  O  O41  1  0.89058300  0.96522900  0.86811300  1
  O  O42  1  0.61838200  0.89689200  0.79143400  1
  O  O43  1  0.91841900  0.60586700  0.54717900  1
  O  O44  1  0.46569000  0.61776900  0.62475800  1
  O  O45  1  0.62105800  0.32943900  0.35546600  1
  O  O46  1  0.87069500  0.39714800  0.42932600  1
  O  O47  1  0.39793100  0.86834900  0.93040400  1
  O  O48  1  0.11635200  0.83199000  0.87440000  1
  O  O49  1  0.20655600  0.56828700  0.65931900  1
  O  O50  1  0.90886600  0.70322400  0.83276200  1
  O  O51  1  0.60801700  0.90699600  0.05364900  1
  O  O52  1  0.33635600  0.61879300  0.85662700  1
  O  O53  1  0.16801000  0.88364800  0.12560000  1
  O  O54  1  0.40736700  0.31573600  0.56647400  1
  O  O55  1  0.08412800  0.19950600  0.43928400  1
  O  O56  1  0.91647400  0.79997400  0.06641100  1
  O  O57  1  0.59341700  0.68042200  0.94482200  1
  O  O58  1  0.83710200  0.11685700  0.37173500  1
  O  O59  1  0.67056100  0.37894200  0.64453400  1
  O  O60  1  0.39413300  0.08158100  0.45282100  1
  O  O61  1  0.09550400  0.27538200  0.68077100  1
  O  O62  1  0.80825500  0.40136000  0.84677500  1
  O  O63  1  0.60285200  0.12930500  0.57067400  1
  O  O64  1  0.88314300  0.16289800  0.62826500  1
  O  O65  1  0.13165100  0.60206900  0.06959600  1
  O  O66  1  0.38120700  0.66364400  0.14337300  1
  O  O67  1  0.54042000  0.38011800  0.87496900  1
  O  O68  1  0.09300400  0.39198300  0.94635100  1
  O  O69  1  0.10586600  0.02009800  0.62672300  1
  O  O70  1  0.37651600  0.10230400  0.71093500  1
  O  O71  1  0.31957800  0.40658300  0.05517800  1
  O  O72  1  0.68092100  0.17640400  0.83457500  1
  O  O73  1  0.61988200  0.45958000  0.12503100  1
  O  O74  1  0.10310800  0.38161800  0.20856600  1
  O  O75  1  0.20002600  0.08352600  0.93358900  1
  O  O76  1  0.82359600  0.31907900  0.16542500  1
  O  O77  1  0.59864000  0.19174500  0.15322500  1
  O  O78  1  0.03477100  0.10941700  0.13188700  1
  O  O79  1  0.29677600  0.09113400  0.16723800  1
