# generated using pymatgen
data_Li4Nb3Fe3(SbO8)2
_symmetry_space_group_name_H-M   'P 1'
_cell_length_a   6.15583200
_cell_length_b   6.22592428
_cell_length_c   10.55547454
_cell_angle_alpha   90.74003187
_cell_angle_beta   89.78383774
_cell_angle_gamma   118.91633124
_symmetry_Int_Tables_number   1
_chemical_formula_structural   Li4Nb3Fe3(SbO8)2
_chemical_formula_sum   'Li4 Nb3 Fe3 Sb2 O16'
_cell_volume   354.07934464
_cell_formula_units_Z   1
loop_
 _symmetry_equiv_pos_site_id
 _symmetry_equiv_pos_as_xyz
  1  'x, y, z'
loop_
 _atom_site_type_symbol
 _atom_site_label
 _atom_site_symmetry_multiplicity
 _atom_site_fract_x
 _atom_site_fract_y
 _atom_site_fract_z
 _atom_site_occupancy
  Li  Li0  1  0.67170400  0.34031100  0.89931600  1
  Li  Li1  1  0.00070700  0.00142200  0.00311600  1
  Li  Li2  1  0.99932300  0.00056200  0.48712600  1
  Li  Li3  1  0.34044500  0.67752300  0.38936200  1
  Nb  Nb4  1  0.82337300  0.64953000  0.23088800  1
  Nb  Nb5  1  0.16228800  0.82255200  0.71890900  1
  Nb  Nb6  1  0.65935500  0.82197900  0.71923000  1
  Fe  Fe7  1  0.33935400  0.16443300  0.21586100  1
  Fe  Fe8  1  0.82495700  0.16557000  0.21573100  1
  Fe  Fe9  1  0.16602200  0.33179800  0.70535300  1
  Sb  Sb10  1  0.64310100  0.28362800  0.49673400  1
  Sb  Sb11  1  0.32081200  0.64925800  0.02364100  1
  O  O12  1  0.30231100  0.13000100  0.59413800  1
  O  O13  1  0.53646000  0.04099000  0.34487900  1
  O  O14  1  0.69153400  0.35974800  0.10865600  1
  O  O15  1  0.98392500  0.98650800  0.30819500  1
  O  O16  1  0.99412900  0.99210600  0.81827500  1
  O  O17  1  0.82894600  0.13245000  0.59608900  1
  O  O18  1  0.52259400  0.50626300  0.32589000  1
  O  O19  1  0.98265500  0.50040300  0.32565300  1
  O  O20  1  0.14250400  0.31303400  0.10855400  1
  O  O21  1  0.86192400  0.71866800  0.60796700  1
  O  O22  1  0.01706700  0.52824700  0.81337500  1
  O  O23  1  0.51388300  0.52635000  0.81079500  1
  O  O24  1  0.34920400  0.69424200  0.60684500  1
  O  O25  1  0.15550800  0.83398600  0.10661100  1
  O  O26  1  0.49098800  0.98557400  0.81671200  1
  O  O27  1  0.67462500  0.84286500  0.10994100  1
