# generated using pymatgen
data_Li3Cr
_symmetry_space_group_name_H-M   'P 1'
_cell_length_a   5.86603670
_cell_length_b   5.86603670
_cell_length_c   4.89948700
_cell_angle_alpha   90.00000000
_cell_angle_beta   90.00000000
_cell_angle_gamma   120.00000786
_symmetry_Int_Tables_number   1
_chemical_formula_structural   Li3Cr
_chemical_formula_sum   'Li6 Cr2'
_cell_volume   146.00601845
_cell_formula_units_Z   2
loop_
 _symmetry_equiv_pos_site_id
 _symmetry_equiv_pos_as_xyz
  1  'x, y, z'
loop_
 _atom_site_type_symbol
 _atom_site_label
 _atom_site_symmetry_multiplicity
 _atom_site_fract_x
 _atom_site_fract_y
 _atom_site_fract_z
 _atom_site_occupancy
  Li  Li0  1  0.16721400  0.33442700  0.25000000  1
  Li  Li1  1  0.66557300  0.83278600  0.25000000  1
  Li  Li2  1  0.16721400  0.83278600  0.25000000  1
  Li  Li3  1  0.83278600  0.66557300  0.75000000  1
  Li  Li4  1  0.33442700  0.16721400  0.75000000  1
  Li  Li5  1  0.83278600  0.16721400  0.75000000  1
  Cr  Cr6  1  0.33333300  0.66666700  0.75000000  1
  Cr  Cr7  1  0.66666700  0.33333300  0.25000000  1
