# generated using pymatgen
data_LiMg2
_symmetry_space_group_name_H-M   'P 1'
_cell_length_a   5.73123703
_cell_length_b   5.73123703
_cell_length_c   7.13494934
_cell_angle_alpha   71.77916934
_cell_angle_beta   71.77916934
_cell_angle_gamma   34.71756626
_symmetry_Int_Tables_number   1
_chemical_formula_structural   LiMg2
_chemical_formula_sum   'Li2 Mg4'
_cell_volume   126.11094383
_cell_formula_units_Z   2
loop_
 _symmetry_equiv_pos_site_id
 _symmetry_equiv_pos_as_xyz
  1  'x, y, z'
loop_
 _atom_site_type_symbol
 _atom_site_label
 _atom_site_symmetry_multiplicity
 _atom_site_fract_x
 _atom_site_fract_y
 _atom_site_fract_z
 _atom_site_occupancy
  Li  Li0  1  0.16922800  0.16922800  0.43552400  1
  Li  Li1  1  0.83077200  0.83077200  0.56447600  1
  Mg  Mg2  1  0.48746500  0.48746500  0.73724100  1
  Mg  Mg3  1  0.17031900  0.17031900  0.89463200  1
  Mg  Mg4  1  0.82968100  0.82968100  0.10536800  1
  Mg  Mg5  1  0.51253500  0.51253500  0.26275900  1
