# generated using pymatgen
data_Li(Mg4Al3)4
_symmetry_space_group_name_H-M   'P 1'
_cell_length_a   9.11072928
_cell_length_b   9.11072928
_cell_length_c   9.11072928
_cell_angle_alpha   109.47122063
_cell_angle_beta   109.47122063
_cell_angle_gamma   109.47122063
_symmetry_Int_Tables_number   1
_chemical_formula_structural   Li(Mg4Al3)4
_chemical_formula_sum   'Li1 Mg16 Al12'
_cell_volume   582.15352934
_cell_formula_units_Z   1
loop_
 _symmetry_equiv_pos_site_id
 _symmetry_equiv_pos_as_xyz
  1  'x, y, z'
loop_
 _atom_site_type_symbol
 _atom_site_label
 _atom_site_symmetry_multiplicity
 _atom_site_fract_x
 _atom_site_fract_y
 _atom_site_fract_z
 _atom_site_occupancy
  Li  Li0  1  0.00000000  0.00000000  0.00000000  1
  Mg  Mg1  1  0.71397600  0.31503100  0.31503100  1
  Mg  Mg2  1  0.33838400  0.33838400  0.33838400  1
  Mg  Mg3  1  0.28602400  0.60105500  0.60105500  1
  Mg  Mg4  1  0.66161600  0.00000000  0.00000000  1
  Mg  Mg5  1  0.00000000  0.68496900  0.39894500  1
  Mg  Mg6  1  0.60105500  0.60105500  0.28602400  1
  Mg  Mg7  1  0.39894500  0.00000000  0.68496900  1
  Mg  Mg8  1  0.00000000  0.00000000  0.66161600  1
  Mg  Mg9  1  0.31503100  0.71397600  0.31503100  1
  Mg  Mg10  1  0.68496900  0.39894500  0.00000000  1
  Mg  Mg11  1  0.68496900  0.00000000  0.39894500  1
  Mg  Mg12  1  0.31503100  0.31503100  0.71397600  1
  Mg  Mg13  1  0.00000000  0.66161600  0.00000000  1
  Mg  Mg14  1  0.39894500  0.68496900  0.00000000  1
  Mg  Mg15  1  0.60105500  0.28602400  0.60105500  1
  Mg  Mg16  1  0.00000000  0.39894500  0.68496900  1
  Al  Al17  1  0.18143300  0.81386700  0.81386700  1
  Al  Al18  1  0.81856700  0.63243300  0.63243300  1
  Al  Al19  1  0.00000000  0.36756700  0.18613300  1
  Al  Al20  1  0.63243300  0.81856700  0.63243300  1
  Al  Al21  1  0.36756700  0.18613300  0.00000000  1
  Al  Al22  1  0.81386700  0.18143300  0.81386700  1
  Al  Al23  1  0.18613300  0.36756700  0.00000000  1
  Al  Al24  1  0.81386700  0.81386700  0.18143300  1
  Al  Al25  1  0.18613300  0.00000000  0.36756700  1
  Al  Al26  1  0.36756700  0.00000000  0.18613300  1
  Al  Al27  1  0.63243300  0.63243300  0.81856700  1
  Al  Al28  1  0.00000000  0.18613300  0.36756700  1
