# generated using pymatgen
data_Li3Mg
_symmetry_space_group_name_H-M   'P 1'
_cell_length_a   3.08496500
_cell_length_b   4.98028100
_cell_length_c   5.25038000
_cell_angle_alpha   90.00000000
_cell_angle_beta   90.00000000
_cell_angle_gamma   90.00000000
_symmetry_Int_Tables_number   1
_chemical_formula_structural   Li3Mg
_chemical_formula_sum   'Li3 Mg1'
_cell_volume   80.66679934
_cell_formula_units_Z   1
loop_
 _symmetry_equiv_pos_site_id
 _symmetry_equiv_pos_as_xyz
  1  'x, y, z'
loop_
 _atom_site_type_symbol
 _atom_site_label
 _atom_site_symmetry_multiplicity
 _atom_site_fract_x
 _atom_site_fract_y
 _atom_site_fract_z
 _atom_site_occupancy
  Li  Li0  1  0.00000000  0.00000000  0.99865600  1
  Li  Li1  1  0.50000000  0.00000000  0.49958500  1
  Li  Li2  1  0.50000000  0.50000000  0.83290200  1
  Mg  Mg3  1  0.00000000  0.50000000  0.33552400  1
