# generated using pymatgen
data_LiSnCl3
_symmetry_space_group_name_H-M   'P 1'
_cell_length_a   7.33247234
_cell_length_b   7.33247234
_cell_length_c   7.33247278
_cell_angle_alpha   57.04031507
_cell_angle_beta   57.04031507
_cell_angle_gamma   57.04031045
_symmetry_Int_Tables_number   1
_chemical_formula_structural   LiSnCl3
_chemical_formula_sum   'Li2 Sn2 Cl6'
_cell_volume   259.74373461
_cell_formula_units_Z   2
loop_
 _symmetry_equiv_pos_site_id
 _symmetry_equiv_pos_as_xyz
  1  'x, y, z'
loop_
 _atom_site_type_symbol
 _atom_site_label
 _atom_site_symmetry_multiplicity
 _atom_site_fract_x
 _atom_site_fract_y
 _atom_site_fract_z
 _atom_site_occupancy
  Li  Li0  1  0.69399800  0.69399800  0.69399800  1
  Li  Li1  1  0.19399800  0.19399800  0.19399800  1
  Sn  Sn2  1  0.99828000  0.99828000  0.99828000  1
  Sn  Sn3  1  0.49828000  0.49828000  0.49828000  1
  Cl  Cl4  1  0.02788900  0.41265700  0.83867600  1
  Cl  Cl5  1  0.41265700  0.83867600  0.02788900  1
  Cl  Cl6  1  0.83867600  0.02788900  0.41265700  1
  Cl  Cl7  1  0.52788900  0.33867600  0.91265700  1
  Cl  Cl8  1  0.91265700  0.52788900  0.33867600  1
  Cl  Cl9  1  0.33867600  0.91265700  0.52788900  1
