# generated using pymatgen
data_LiTb3
_symmetry_space_group_name_H-M   'P 1'
_cell_length_a   7.02532259
_cell_length_b   7.02532259
_cell_length_c   5.54800100
_cell_angle_alpha   90.00000000
_cell_angle_beta   90.00000000
_cell_angle_gamma   120.00000553
_symmetry_Int_Tables_number   1
_chemical_formula_structural   LiTb3
_chemical_formula_sum   'Li2 Tb6'
_cell_volume   237.13719580
_cell_formula_units_Z   2
loop_
 _symmetry_equiv_pos_site_id
 _symmetry_equiv_pos_as_xyz
  1  'x, y, z'
loop_
 _atom_site_type_symbol
 _atom_site_label
 _atom_site_symmetry_multiplicity
 _atom_site_fract_x
 _atom_site_fract_y
 _atom_site_fract_z
 _atom_site_occupancy
  Li  Li0  1  0.66666700  0.33333300  0.25000000  1
  Li  Li1  1  0.33333300  0.66666700  0.75000000  1
  Tb  Tb2  1  0.83102200  0.16897800  0.75000000  1
  Tb  Tb3  1  0.33795600  0.16897800  0.75000000  1
  Tb  Tb4  1  0.83102200  0.66204400  0.75000000  1
  Tb  Tb5  1  0.16897800  0.83102200  0.25000000  1
  Tb  Tb6  1  0.66204400  0.83102200  0.25000000  1
  Tb  Tb7  1  0.16897800  0.33795600  0.25000000  1
