# generated using pymatgen
data_Li(Fe2O3)4
_symmetry_space_group_name_H-M   'P 1'
_cell_length_a   5.97719948
_cell_length_b   5.99319591
_cell_length_c   13.44468737
_cell_angle_alpha   103.09989205
_cell_angle_beta   103.09598309
_cell_angle_gamma   89.94287530
_symmetry_Int_Tables_number   1
_chemical_formula_structural   Li(Fe2O3)4
_chemical_formula_sum   'Li2 Fe16 O24'
_cell_volume   456.24479474
_cell_formula_units_Z   2
loop_
 _symmetry_equiv_pos_site_id
 _symmetry_equiv_pos_as_xyz
  1  'x, y, z'
loop_
 _atom_site_type_symbol
 _atom_site_label
 _atom_site_symmetry_multiplicity
 _atom_site_fract_x
 _atom_site_fract_y
 _atom_site_fract_z
 _atom_site_occupancy
  Li  Li0  1  0.45504400  0.21127600  0.41617500  1
  Li  Li1  1  0.45850900  0.20941800  0.91670000  1
  Fe  Fe2  1  0.99661300  0.99290700  0.99750700  1
  Fe  Fe3  1  0.78537200  0.53222500  0.08042100  1
  Fe  Fe4  1  0.29059800  0.53492400  0.07954900  1
  Fe  Fe5  1  0.57950000  0.08498300  0.16368600  1
  Fe  Fe6  1  0.13482000  0.87923800  0.25429400  1
  Fe  Fe7  1  0.13458100  0.37243500  0.25234700  1
  Fe  Fe8  1  0.67396900  0.66868800  0.33838700  1
  Fe  Fe9  1  0.96395800  0.20980000  0.41667600  1
  Fe  Fe10  1  0.24836900  0.74741200  0.49957600  1
  Fe  Fe11  1  0.78332500  0.03855200  0.58082900  1
  Fe  Fe12  1  0.78719100  0.54312700  0.58291500  1
  Fe  Fe13  1  0.33622100  0.33092000  0.66731900  1
  Fe  Fe14  1  0.62720700  0.88156300  0.75355200  1
  Fe  Fe15  1  0.12597900  0.88082600  0.75163500  1
  Fe  Fe16  1  0.91897000  0.42122200  0.83467000  1
  Fe  Fe17  1  0.45397000  0.70591600  0.91603400  1
  O  O18  1  0.54828000  0.30694100  0.08318300  1
  O  O19  1  0.54434500  0.77836700  0.07641400  1
  O  O20  1  0.03858000  0.30258500  0.08683200  1
  O  O21  1  0.03935700  0.78083000  0.08948000  1
  O  O22  1  0.88780300  0.62193200  0.24350200  1
  O  O23  1  0.36364700  0.62576100  0.25148900  1
  O  O24  1  0.35672800  0.12259200  0.24549700  1
  O  O25  1  0.88682300  0.12714300  0.25356900  1
  O  O26  1  0.19092600  0.97371800  0.40731400  1
  O  O27  1  0.19106200  0.43377000  0.40509500  1
  O  O28  1  0.72059300  0.97151300  0.42637100  1
  O  O29  1  0.72278500  0.45977100  0.42784100  1
  O  O30  1  0.56370200  0.29403700  0.58684200  1
  O  O31  1  0.02682400  0.29143100  0.58085200  1
  O  O32  1  0.02480400  0.80210700  0.59951200  1
  O  O33  1  0.56533800  0.79519600  0.59220500  1
  O  O34  1  0.87748800  0.64122800  0.74647700  1
  O  O35  1  0.87579500  0.10743800  0.74724800  1
  O  O36  1  0.37463800  0.64474400  0.75386700  1
  O  O37  1  0.36904500  0.09837800  0.74534300  1
  O  O38  1  0.21184300  0.94409900  0.90558100  1
  O  O39  1  0.69723000  0.94278600  0.90729500  1
  O  O40  1  0.69950500  0.47055500  0.92178000  1
  O  O41  1  0.21866400  0.46764400  0.91414100  1
