# generated using pymatgen
data_LiSnCl3
_symmetry_space_group_name_H-M   'P 1'
_cell_length_a   5.17902024
_cell_length_b   5.17902024
_cell_length_c   5.17901996
_cell_angle_alpha   86.89669754
_cell_angle_beta   86.89669754
_cell_angle_gamma   86.89669149
_symmetry_Int_Tables_number   1
_chemical_formula_structural   LiSnCl3
_chemical_formula_sum   'Li1 Sn1 Cl3'
_cell_volume   138.32307997
_cell_formula_units_Z   1
loop_
 _symmetry_equiv_pos_site_id
 _symmetry_equiv_pos_as_xyz
  1  'x, y, z'
loop_
 _atom_site_type_symbol
 _atom_site_label
 _atom_site_symmetry_multiplicity
 _atom_site_fract_x
 _atom_site_fract_y
 _atom_site_fract_z
 _atom_site_occupancy
  Li  Li0  1  0.88907700  0.88907700  0.88907700  1
  Sn  Sn1  1  0.52251800  0.52251800  0.52251800  1
  Cl  Cl2  1  0.37446900  0.85725500  0.85725500  1
  Cl  Cl3  1  0.85725500  0.37446900  0.85725500  1
  Cl  Cl4  1  0.85725500  0.85725500  0.37446900  1
