# generated using pymatgen
data_Li4UC3O11
_symmetry_space_group_name_H-M   'P 1'
_cell_length_a   8.91790451
_cell_length_b   8.91790451
_cell_length_c   12.53410900
_cell_angle_alpha   90.00000000
_cell_angle_beta   90.00000000
_cell_angle_gamma   120.00000377
_symmetry_Int_Tables_number   1
_chemical_formula_structural   Li4UC3O11
_chemical_formula_sum   'Li16 U4 C12 O44'
_cell_volume   863.27610032
_cell_formula_units_Z   4
loop_
 _symmetry_equiv_pos_site_id
 _symmetry_equiv_pos_as_xyz
  1  'x, y, z'
loop_
 _atom_site_type_symbol
 _atom_site_label
 _atom_site_symmetry_multiplicity
 _atom_site_fract_x
 _atom_site_fract_y
 _atom_site_fract_z
 _atom_site_occupancy
  Li  Li0  1  0.68920500  0.12286100  0.87331800  1
  Li  Li1  1  0.87713900  0.56634400  0.87331800  1
  Li  Li2  1  0.43365600  0.31079500  0.87331800  1
  Li  Li3  1  0.56634400  0.87713900  0.62668200  1
  Li  Li4  1  0.31079500  0.43365600  0.62668200  1
  Li  Li5  1  0.12286100  0.68920500  0.62668200  1
  Li  Li6  1  0.31079500  0.87713900  0.12668200  1
  Li  Li7  1  0.12286100  0.43365600  0.12668200  1
  Li  Li8  1  0.56634400  0.68920500  0.12668200  1
  Li  Li9  1  0.43365600  0.12286100  0.37331800  1
  Li  Li10  1  0.68920500  0.56634400  0.37331800  1
  Li  Li11  1  0.87713900  0.31079500  0.37331800  1
  Li  Li12  1  0.00000000  0.00000000  0.50000000  1
  Li  Li13  1  0.00000000  0.00000000  0.00000000  1
  Li  Li14  1  0.00000000  0.00000000  0.75000000  1
  Li  Li15  1  0.00000000  0.00000000  0.25000000  1
  U  U16  1  0.66666700  0.33333300  0.62983900  1
  U  U17  1  0.33333300  0.66666700  0.87016100  1
  U  U18  1  0.33333300  0.66666700  0.37016100  1
  U  U19  1  0.66666700  0.33333300  0.12983900  1
  C  C20  1  0.25143300  0.93551900  0.87271100  1
  C  C21  1  0.06448100  0.31591400  0.87271100  1
  C  C22  1  0.68408600  0.74856700  0.87271100  1
  C  C23  1  0.31591400  0.06448100  0.62728900  1
  C  C24  1  0.74856700  0.68408600  0.62728900  1
  C  C25  1  0.93551900  0.25143300  0.62728900  1
  C  C26  1  0.74856700  0.06448100  0.12728900  1
  C  C27  1  0.93551900  0.68408600  0.12728900  1
  C  C28  1  0.31591400  0.25143300  0.12728900  1
  C  C29  1  0.68408600  0.93551900  0.37271100  1
  C  C30  1  0.25143300  0.31591400  0.37271100  1
  C  C31  1  0.06448100  0.74856700  0.37271100  1
  O  O32  1  0.63633000  0.86483400  0.85969400  1
  O  O33  1  0.13516600  0.77149600  0.85969400  1
  O  O34  1  0.22850400  0.36367000  0.85969400  1
  O  O35  1  0.77149600  0.13516600  0.64030600  1
  O  O36  1  0.36367000  0.22850400  0.64030600  1
  O  O37  1  0.86483400  0.63633000  0.64030600  1
  O  O38  1  0.36367000  0.13516600  0.14030600  1
  O  O39  1  0.86483400  0.22850400  0.14030600  1
  O  O40  1  0.77149600  0.63633000  0.14030600  1
  O  O41  1  0.22850400  0.86483400  0.35969400  1
  O  O42  1  0.63633000  0.77149600  0.35969400  1
  O  O43  1  0.13516600  0.36367000  0.35969400  1
  O  O44  1  0.41071400  0.96572400  0.88002600  1
  O  O45  1  0.03427600  0.44499000  0.88002600  1
  O  O46  1  0.55501000  0.58928600  0.88002600  1
  O  O47  1  0.44499000  0.03427600  0.61997400  1
  O  O48  1  0.58928600  0.55501000  0.61997400  1
  O  O49  1  0.96572400  0.41071400  0.61997400  1
  O  O50  1  0.58928600  0.03427600  0.11997400  1
  O  O51  1  0.96572400  0.55501000  0.11997400  1
  O  O52  1  0.44499000  0.41071400  0.11997400  1
  O  O53  1  0.55501000  0.96572400  0.38002600  1
  O  O54  1  0.41071400  0.44499000  0.38002600  1
  O  O55  1  0.03427600  0.58928600  0.38002600  1
  O  O56  1  0.21446000  0.05545500  0.87801600  1
  O  O57  1  0.94454500  0.15900500  0.87801600  1
  O  O58  1  0.84099500  0.78554000  0.87801600  1
  O  O59  1  0.15900500  0.94454500  0.62198400  1
  O  O60  1  0.78554000  0.84099500  0.62198400  1
  O  O61  1  0.05545500  0.21446000  0.62198400  1
  O  O62  1  0.78554000  0.94454500  0.12198400  1
  O  O63  1  0.05545500  0.84099500  0.12198400  1
  O  O64  1  0.15900500  0.21446000  0.12198400  1
  O  O65  1  0.84099500  0.05545500  0.37801600  1
  O  O66  1  0.21446000  0.15900500  0.37801600  1
  O  O67  1  0.94454500  0.78554000  0.37801600  1
  O  O68  1  0.66666700  0.33333300  0.48164800  1
  O  O69  1  0.33333300  0.66666700  0.01835200  1
  O  O70  1  0.33333300  0.66666700  0.51835200  1
  O  O71  1  0.66666700  0.33333300  0.98164800  1
  O  O72  1  0.66666700  0.33333300  0.77898900  1
  O  O73  1  0.33333300  0.66666700  0.72101100  1
  O  O74  1  0.33333300  0.66666700  0.22101100  1
  O  O75  1  0.66666700  0.33333300  0.27898900  1
