# generated using pymatgen
data_Li2CoPHO5
_symmetry_space_group_name_H-M   'P 1'
_cell_length_a   5.38446380
_cell_length_b   11.01525542
_cell_length_c   7.50702143
_cell_angle_alpha   109.13386556
_cell_angle_beta   109.82028190
_cell_angle_gamma   93.97031185
_symmetry_Int_Tables_number   1
_chemical_formula_structural   Li2CoPHO5
_chemical_formula_sum   'Li8 Co4 P4 H4 O20'
_cell_volume   387.49838610
_cell_formula_units_Z   4
loop_
 _symmetry_equiv_pos_site_id
 _symmetry_equiv_pos_as_xyz
  1  'x, y, z'
loop_
 _atom_site_type_symbol
 _atom_site_label
 _atom_site_symmetry_multiplicity
 _atom_site_fract_x
 _atom_site_fract_y
 _atom_site_fract_z
 _atom_site_occupancy
  Li  Li0  1  0.48258900  0.43420100  0.15838500  1
  Li  Li1  1  0.48494500  0.93332800  0.15679400  1
  Li  Li2  1  0.51505100  0.06666900  0.84320100  1
  Li  Li3  1  0.51740500  0.56579600  0.84161200  1
  Li  Li4  1  0.22249800  0.30207300  0.29328400  1
  Li  Li5  1  0.22433600  0.80157100  0.29262600  1
  Li  Li6  1  0.77566500  0.19843000  0.70737200  1
  Li  Li7  1  0.77750500  0.69793000  0.70672400  1
  Co  Co8  1  0.99999800  0.50000100  0.49999900  1
  Co  Co9  1  0.00000000  0.00000000  0.99999900  1
  Co  Co10  1  0.00000000  0.00000100  0.49999900  1
  Co  Co11  1  0.00000000  0.50000000  0.00000000  1
  P  P12  1  0.32794900  0.31084600  0.75639600  1
  P  P13  1  0.33173600  0.81089200  0.75584700  1
  P  P14  1  0.66826500  0.18910700  0.24415300  1
  P  P15  1  0.67205100  0.68915500  0.24360500  1
  H  H16  1  0.69764500  0.44790900  0.63155700  1
  H  H17  1  0.69270700  0.95128400  0.63249300  1
  H  H18  1  0.30729600  0.04871600  0.36750500  1
  H  H19  1  0.30235700  0.55209100  0.36844200  1
  O  O20  1  0.16487100  0.47288300  0.27404200  1
  O  O21  1  0.16409300  0.97172600  0.27296300  1
  O  O22  1  0.83590800  0.02827400  0.72703700  1
  O  O23  1  0.83512800  0.52711800  0.72595800  1
  O  O24  1  0.26052500  0.37416500  0.59193700  1
  O  O25  1  0.26566500  0.87428700  0.59159500  1
  O  O26  1  0.73433900  0.12571500  0.40840900  1
  O  O27  1  0.73947100  0.62583600  0.40806400  1
  O  O28  1  0.64943700  0.33579600  0.33643800  1
  O  O29  1  0.65442000  0.83604700  0.33551000  1
  O  O30  1  0.34557800  0.16395300  0.66449100  1
  O  O31  1  0.35055700  0.66420200  0.66355800  1
  O  O32  1  0.61104800  0.38563300  0.92250800  1
  O  O33  1  0.61403100  0.88584100  0.92343200  1
  O  O34  1  0.38597300  0.11415300  0.07656800  1
  O  O35  1  0.38895100  0.61436800  0.07749000  1
  O  O36  1  0.12197600  0.32462000  0.86088900  1
  O  O37  1  0.12458700  0.82412500  0.85934700  1
  O  O38  1  0.87541700  0.17587500  0.14065600  1
  O  O39  1  0.87802600  0.67538100  0.13911400  1
