# generated using pymatgen
data_LiCdPO4
_symmetry_space_group_name_H-M   'P 1'
_cell_length_a   4.86350000
_cell_length_b   6.37517700
_cell_length_c   10.93315700
_cell_angle_alpha   90.00000000
_cell_angle_beta   90.00000000
_cell_angle_gamma   90.00000000
_symmetry_Int_Tables_number   1
_chemical_formula_structural   LiCdPO4
_chemical_formula_sum   'Li4 Cd4 P4 O16'
_cell_volume   338.98989451
_cell_formula_units_Z   4
loop_
 _symmetry_equiv_pos_site_id
 _symmetry_equiv_pos_as_xyz
  1  'x, y, z'
loop_
 _atom_site_type_symbol
 _atom_site_label
 _atom_site_symmetry_multiplicity
 _atom_site_fract_x
 _atom_site_fract_y
 _atom_site_fract_z
 _atom_site_occupancy
  Li  Li0  1  0.00000000  0.50000000  0.50000000  1
  Li  Li1  1  0.50000000  0.50000000  0.00000000  1
  Li  Li2  1  0.00000000  0.00000000  0.50000000  1
  Li  Li3  1  0.50000000  0.00000000  0.00000000  1
  Cd  Cd4  1  0.54205000  0.75000000  0.71638400  1
  Cd  Cd5  1  0.04205000  0.25000000  0.78361600  1
  Cd  Cd6  1  0.45795000  0.25000000  0.28361600  1
  Cd  Cd7  1  0.95795000  0.75000000  0.21638400  1
  P  P8  1  0.39634600  0.75000000  0.41178900  1
  P  P9  1  0.89634600  0.25000000  0.08821100  1
  P  P10  1  0.60365400  0.25000000  0.58821100  1
  P  P11  1  0.10365400  0.75000000  0.91178900  1
  O  O12  1  0.73574800  0.05473600  0.65434400  1
  O  O13  1  0.23574800  0.94526400  0.84565600  1
  O  O14  1  0.26425200  0.55473600  0.34565600  1
  O  O15  1  0.76425200  0.44526400  0.15434400  1
  O  O16  1  0.78778500  0.75000000  0.90793800  1
  O  O17  1  0.28778500  0.25000000  0.59206200  1
  O  O18  1  0.21221500  0.25000000  0.09206200  1
  O  O19  1  0.71221500  0.75000000  0.40793800  1
  O  O20  1  0.22601900  0.75000000  0.04363300  1
  O  O21  1  0.72601900  0.25000000  0.45636700  1
  O  O22  1  0.77398100  0.25000000  0.95636700  1
  O  O23  1  0.27398100  0.75000000  0.54363300  1
  O  O24  1  0.23574800  0.55473600  0.84565600  1
  O  O25  1  0.73574800  0.44526400  0.65434400  1
  O  O26  1  0.76425200  0.05473600  0.15434400  1
  O  O27  1  0.26425200  0.94526400  0.34565600  1
