# generated using pymatgen
data_LiBeSb
_symmetry_space_group_name_H-M   'P 1'
_cell_length_a   4.17242521
_cell_length_b   4.17242521
_cell_length_c   6.78078700
_cell_angle_alpha   90.00000000
_cell_angle_beta   90.00000000
_cell_angle_gamma   119.99998748
_symmetry_Int_Tables_number   1
_chemical_formula_structural   LiBeSb
_chemical_formula_sum   'Li2 Be2 Sb2'
_cell_volume   102.23224797
_cell_formula_units_Z   2
loop_
 _symmetry_equiv_pos_site_id
 _symmetry_equiv_pos_as_xyz
  1  'x, y, z'
loop_
 _atom_site_type_symbol
 _atom_site_label
 _atom_site_symmetry_multiplicity
 _atom_site_fract_x
 _atom_site_fract_y
 _atom_site_fract_z
 _atom_site_occupancy
  Li  Li0  1  0.00000000  0.00000000  0.15259800  1
  Li  Li1  1  0.00000000  0.00000000  0.65259800  1
  Be  Be2  1  0.33333300  0.66666700  0.00722600  1
  Be  Be3  1  0.66666700  0.33333300  0.50722600  1
  Sb  Sb4  1  0.33333300  0.66666700  0.39017500  1
  Sb  Sb5  1  0.66666700  0.33333300  0.89017500  1
