# generated using pymatgen
data_LiLu3
_symmetry_space_group_name_H-M   'P 1'
_cell_length_a   6.83932458
_cell_length_b   6.83932458
_cell_length_c   5.41376300
_cell_angle_alpha   90.00000000
_cell_angle_beta   90.00000000
_cell_angle_gamma   120.00000562
_symmetry_Int_Tables_number   1
_chemical_formula_structural   LiLu3
_chemical_formula_sum   'Li2 Lu6'
_cell_volume   219.30891017
_cell_formula_units_Z   2
loop_
 _symmetry_equiv_pos_site_id
 _symmetry_equiv_pos_as_xyz
  1  'x, y, z'
loop_
 _atom_site_type_symbol
 _atom_site_label
 _atom_site_symmetry_multiplicity
 _atom_site_fract_x
 _atom_site_fract_y
 _atom_site_fract_z
 _atom_site_occupancy
  Li  Li0  1  0.66666700  0.33333300  0.25000000  1
  Li  Li1  1  0.33333300  0.66666700  0.75000000  1
  Lu  Lu2  1  0.83213400  0.16786600  0.75000000  1
  Lu  Lu3  1  0.33573100  0.16786600  0.75000000  1
  Lu  Lu4  1  0.83213400  0.66426900  0.75000000  1
  Lu  Lu5  1  0.16786600  0.83213400  0.25000000  1
  Lu  Lu6  1  0.66426900  0.83213400  0.25000000  1
  Lu  Lu7  1  0.16786600  0.33573100  0.25000000  1
