# generated using pymatgen
data_Li3Re
_symmetry_space_group_name_H-M   'P 1'
_cell_length_a   5.41511685
_cell_length_b   5.41511685
_cell_length_c   4.51716300
_cell_angle_alpha   90.00000000
_cell_angle_beta   90.00000000
_cell_angle_gamma   120.00001036
_symmetry_Int_Tables_number   1
_chemical_formula_structural   Li3Re
_chemical_formula_sum   'Li6 Re2'
_cell_volume   114.71283506
_cell_formula_units_Z   2
loop_
 _symmetry_equiv_pos_site_id
 _symmetry_equiv_pos_as_xyz
  1  'x, y, z'
loop_
 _atom_site_type_symbol
 _atom_site_label
 _atom_site_symmetry_multiplicity
 _atom_site_fract_x
 _atom_site_fract_y
 _atom_site_fract_z
 _atom_site_occupancy
  Li  Li0  1  0.16960000  0.33919900  0.25000000  1
  Li  Li1  1  0.66080100  0.83040000  0.25000000  1
  Li  Li2  1  0.16960000  0.83040000  0.25000000  1
  Li  Li3  1  0.83040000  0.66080100  0.75000000  1
  Li  Li4  1  0.33919900  0.16960000  0.75000000  1
  Li  Li5  1  0.83040000  0.16960000  0.75000000  1
  Re  Re6  1  0.33333300  0.66666700  0.75000000  1
  Re  Re7  1  0.66666700  0.33333300  0.25000000  1
