# generated using pymatgen
data_Li2Si4O7
_symmetry_space_group_name_H-M   'P 1'
_cell_length_a   9.62308384
_cell_length_b   9.62308384
_cell_length_c   9.62308384
_cell_angle_alpha   116.09688289
_cell_angle_beta   116.09688289
_cell_angle_gamma   96.90476343
_symmetry_Int_Tables_number   1
_chemical_formula_structural   Li2Si4O7
_chemical_formula_sum   'Li8 Si16 O28'
_cell_volume   662.09161330
_cell_formula_units_Z   4
loop_
 _symmetry_equiv_pos_site_id
 _symmetry_equiv_pos_as_xyz
  1  'x, y, z'
loop_
 _atom_site_type_symbol
 _atom_site_label
 _atom_site_symmetry_multiplicity
 _atom_site_fract_x
 _atom_site_fract_y
 _atom_site_fract_z
 _atom_site_occupancy
  Li  Li0  1  0.51745900  0.32937900  0.49248900  1
  Li  Li1  1  0.77497000  0.76745900  0.68807900  1
  Li  Li2  1  0.07937900  0.08689000  0.31192100  1
  Li  Li3  1  0.83689000  0.02497000  0.50751100  1
  Li  Li4  1  0.33689000  0.82937900  0.81192100  1
  Li  Li5  1  0.01745900  0.52497000  0.18807900  1
  Li  Li6  1  0.27497000  0.58689000  0.00751100  1
  Li  Li7  1  0.57937900  0.26745900  0.99248900  1
  Si  Si8  1  0.38448200  0.39739400  0.77937500  1
  Si  Si9  1  0.35510700  0.63448200  0.48708900  1
  Si  Si10  1  0.14739400  0.86801800  0.51291100  1
  Si  Si11  1  0.61801800  0.60510700  0.22062500  1
  Si  Si12  1  0.11801800  0.89739400  0.01291100  1
  Si  Si13  1  0.88448200  0.10510700  0.98708900  1
  Si  Si14  1  0.85510700  0.36801800  0.72062500  1
  Si  Si15  1  0.64739400  0.13448200  0.27937500  1
  Si  Si16  1  0.03622200  0.35530200  0.55662900  1
  Si  Si17  1  0.22959400  0.28622200  0.18092000  1
  Si  Si18  1  0.10530200  0.04867300  0.81908000  1
  Si  Si19  1  0.79867300  0.47959400  0.44337100  1
  Si  Si20  1  0.29867300  0.85530200  0.31908000  1
  Si  Si21  1  0.53622200  0.97959400  0.68092000  1
  Si  Si22  1  0.72959400  0.54867300  0.94337100  1
  Si  Si23  1  0.60530200  0.78622200  0.05662900  1
  O  O24  1  0.20470400  0.33189600  0.56459400  1
  O  O25  1  0.39011000  0.45470400  0.37280800  1
  O  O26  1  0.08189600  0.01730300  0.62719200  1
  O  O27  1  0.76730300  0.64011000  0.43540600  1
  O  O28  1  0.26730300  0.83189600  0.12719200  1
  O  O29  1  0.70470400  0.14011000  0.87280800  1
  O  O30  1  0.89011000  0.51730300  0.93540600  1
  O  O31  1  0.58189600  0.95470400  0.06459400  1
  O  O32  1  0.54728000  0.41907200  0.73852100  1
  O  O33  1  0.55875900  0.79728000  0.62820700  1
  O  O34  1  0.16907200  0.93055100  0.37179300  1
  O  O35  1  0.68055100  0.80875900  0.26147900  1
  O  O36  1  0.18055100  0.91907200  0.87179300  1
  O  O37  1  0.04728000  0.30875900  0.12820700  1
  O  O38  1  0.05875900  0.43055100  0.76147900  1
  O  O39  1  0.66907200  0.29728000  0.23852100  1
  O  O40  1  0.42020400  0.62330100  0.89741600  1
  O  O41  1  0.27278800  0.67020400  0.29690300  1
  O  O42  1  0.37330100  0.97588500  0.70309700  1
  O  O43  1  0.72588500  0.52278800  0.10258400  1
  O  O44  1  0.22588500  0.12330100  0.20309700  1
  O  O45  1  0.92020400  0.02278800  0.79690300  1
  O  O46  1  0.77278800  0.47588500  0.60258400  1
  O  O47  1  0.87330100  0.17020400  0.39741600  1
  O  O48  1  0.99026500  0.49026500  0.50000000  1
  O  O49  1  0.24026500  0.24026500  0.00000000  1
  O  O50  1  0.49026500  0.99026500  0.50000000  1
  O  O51  1  0.74026500  0.74026500  0.00000000  1
