# generated using pymatgen
data_LiMg
_symmetry_space_group_name_H-M   'P 1'
_cell_length_a   7.61709400
_cell_length_b   7.61709400
_cell_length_c   4.95737400
_cell_angle_alpha   90.00000000
_cell_angle_beta   90.00000000
_cell_angle_gamma   154.89599064
_symmetry_Int_Tables_number   1
_chemical_formula_structural   LiMg
_chemical_formula_sum   'Li3 Mg3'
_cell_volume   122.02961993
_cell_formula_units_Z   3
loop_
 _symmetry_equiv_pos_site_id
 _symmetry_equiv_pos_as_xyz
  1  'x, y, z'
loop_
 _atom_site_type_symbol
 _atom_site_label
 _atom_site_symmetry_multiplicity
 _atom_site_fract_x
 _atom_site_fract_y
 _atom_site_fract_z
 _atom_site_occupancy
  Li  Li0  1  0.69122300  0.30877700  0.00000000  1
  Li  Li1  1  0.52794200  0.47205800  0.50000000  1
  Li  Li2  1  0.86746100  0.13253900  0.50000000  1
  Mg  Mg3  1  0.02928400  0.97071600  0.00000000  1
  Mg  Mg4  1  0.35364800  0.64635200  0.00000000  1
  Mg  Mg5  1  0.19711600  0.80288400  0.50000000  1
