# generated using pymatgen
data_Li(MnS2)2
_symmetry_space_group_name_H-M   'P 1'
_cell_length_a   6.88710129
_cell_length_b   6.88710129
_cell_length_c   6.88710129
_cell_angle_alpha   119.91003869
_cell_angle_beta   119.83433077
_cell_angle_gamma   90.22153793
_symmetry_Int_Tables_number   1
_chemical_formula_structural   Li(MnS2)2
_chemical_formula_sum   'Li2 Mn4 S8'
_cell_volume   231.43491360
_cell_formula_units_Z   2
loop_
 _symmetry_equiv_pos_site_id
 _symmetry_equiv_pos_as_xyz
  1  'x, y, z'
loop_
 _atom_site_type_symbol
 _atom_site_label
 _atom_site_symmetry_multiplicity
 _atom_site_fract_x
 _atom_site_fract_y
 _atom_site_fract_z
 _atom_site_occupancy
  Li  Li0  1  0.50000000  0.00000000  0.00000000  1
  Li  Li1  1  0.50000000  0.50000000  0.50000000  1
  Mn  Mn2  1  0.00000000  0.50000000  0.50000000  1
  Mn  Mn3  1  0.00000000  0.00000000  0.50000000  1
  Mn  Mn4  1  0.50000000  0.50000000  0.00000000  1
  Mn  Mn5  1  0.00000000  0.50000000  0.00000000  1
  S  S6  1  0.75943900  0.27713700  0.01769900  1
  S  S7  1  0.22247700  0.74167200  0.48080500  1
  S  S8  1  0.75943900  0.74174000  0.48230100  1
  S  S9  1  0.23913200  0.25832800  0.98080500  1
  S  S10  1  0.24056100  0.25826000  0.51769900  1
  S  S11  1  0.77752300  0.25832800  0.51919500  1
  S  S12  1  0.76086800  0.74167200  0.01919500  1
  S  S13  1  0.24056100  0.72286300  0.98230100  1
